BACE_123.smi:1
 OpenBabel09301811243D
Structure written by MMmdl.
 85 88  0  0  1  0  0  0  0  0999 V2000
   23.8828   44.7434   -8.6192 C   0  0  0  0  0  0  0  0  0  0  0  0
   24.6588   44.4296   -7.3300 C   0  0  0  0  0  0  0  0  0  0  0  0
   26.1449   44.7855   -7.4842 C   0  0  0  0  0  0  0  0  0  0  0  0
   24.0483   45.1311   -6.0998 C   0  0  0  0  0  0  0  0  0  0  0  0
   22.7096   44.5420   -5.6916 C   0  0  0  0  0  0  0  0  0  0  0  0
   22.6566   43.2966   -5.0399 C   0  0  0  0  0  0  0  0  0  0  0  0
   21.3997   42.7309   -4.7149 C   0  0  0  0  0  0  0  0  0  0  0  0
   20.2568   43.4995   -5.0365 C   0  0  0  0  0  0  0  0  0  0  0  0
   20.2920   44.7050   -5.6408 N   0  0  0  0  0  0  0  0  0  0  0  0
   21.4994   45.2082   -5.9668 C   0  0  0  0  0  0  0  0  0  0  0  0
   21.2533   41.3489   -4.0522 C   0  0  0  0  0  0  0  0  0  0  0  0
   20.4542   41.5031   -2.7398 C   0  0  0  0  0  0  0  0  0  0  0  0
   22.6203   40.7468   -3.6406 C   0  0  0  0  0  0  0  0  0  0  0  0
   20.4954   40.4286   -4.9627 N   0  3  0  0  0  0  0  0  0  0  0  0
   21.2429   39.5655   -5.9262 C   0  0  0  0  0  0  0  0  0  0  0  0
   21.9915   40.3381   -7.0514 C   0  0  1  0  0  0  0  0  0  0  0  0
   23.2602   39.7504   -7.2395 O   0  0  0  0  0  0  0  0  0  0  0  0
   21.3525   40.3989   -8.4576 C   0  0  2  0  0  0  0  0  0  0  0  0
   21.5779   41.7664   -9.1349 C   0  0  0  0  0  0  0  0  0  0  0  0
   20.8779   41.8404  -10.4732 C   0  0  0  0  0  0  0  0  0  0  0  0
   19.8095   42.7409  -10.6644 C   0  0  0  0  0  0  0  0  0  0  0  0
   19.0413   42.6910  -11.8503 C   0  0  0  0  0  0  0  0  0  0  0  0
   19.3967   41.7499  -12.8357 C   0  0  0  0  0  0  0  0  0  0  0  0
   20.4865   40.8791  -12.6730 C   0  0  0  0  0  0  0  0  0  0  0  0
   21.2351   40.9312  -11.4902 C   0  0  0  0  0  0  0  0  0  0  0  0
   17.9560   43.4955  -12.1288 O   0  0  0  0  0  0  0  0  0  0  0  0
   17.5182   44.4700  -11.1823 C   0  0  0  0  0  0  0  0  0  0  0  0
   16.8160   43.8780   -9.9431 C   0  0  0  0  0  0  0  0  0  0  0  0
   15.8324   42.7457  -10.2664 C   0  0  0  0  0  0  0  0  0  0  0  0
   15.2632   42.0985   -8.9923 C   0  0  0  0  0  0  0  0  0  0  0  0
   14.8044   40.7403   -9.2374 N   0  0  0  0  0  0  0  0  0  0  0  0
   15.7131   39.6681   -9.2133 C   0  0  0  0  0  0  0  0  0  0  0  0
   17.1170   39.8478   -9.1720 C   0  0  0  0  0  0  0  0  0  0  0  0
   17.9887   38.7349   -9.1381 C   0  0  0  0  0  0  0  0  0  0  0  0
   17.4496   37.4337   -9.1844 C   0  0  0  0  0  0  0  0  0  0  0  0
   16.0600   37.2497   -9.2401 C   0  0  0  0  0  0  0  0  0  0  0  0
   15.1939   38.3593   -9.2397 C   0  0  0  0  0  0  0  0  0  0  0  0
   19.4754   38.9123   -9.1204 C   0  0  0  0  0  0  0  0  0  0  0  0
   20.2089   38.0641   -9.6261 O   0  0  0  0  0  0  0  0  0  0  0  0
   19.9387   40.0072   -8.4923 N   0  0  0  0  0  0  0  0  0  0  0  0
   22.2076   41.3478   -6.7251 H   0  0  0  0  0  0  0  0  0  0  0  0
   21.8902   39.6872   -9.0874 H   0  0  0  0  0  0  0  0  0  0  0  0
   22.8372   44.4481   -8.5369 H   0  0  0  0  0  0  0  0  0  0  0  0
   24.3052   44.2089   -9.4705 H   0  0  0  0  0  0  0  0  0  0  0  0
   23.9085   45.8087   -8.8498 H   0  0  0  0  0  0  0  0  0  0  0  0
   24.6165   43.3514   -7.1669 H   0  0  0  0  0  0  0  0  0  0  0  0
   26.7129   44.4939   -6.5975 H   0  0  0  0  0  0  0  0  0  0  0  0
   26.2859   45.8570   -7.6321 H   0  0  0  0  0  0  0  0  0  0  0  0
   26.5870   44.2708   -8.3381 H   0  0  0  0  0  0  0  0  0  0  0  0
   23.9467   46.2017   -6.2800 H   0  0  0  0  0  0  0  0  0  0  0  0
   24.7208   45.0329   -5.2464 H   0  0  0  0  0  0  0  0  0  0  0  0
   23.5858   42.7886   -4.8305 H   0  0  0  0  0  0  0  0  0  0  0  0
   19.2699   43.1286   -4.8148 H   0  0  0  0  0  0  0  0  0  0  0  0
   21.4969   46.1670   -6.4658 H   0  0  0  0  0  0  0  0  0  0  0  0
   20.3185   40.5439   -2.2371 H   0  0  0  0  0  0  0  0  0  0  0  0
   19.4614   41.9257   -2.8906 H   0  0  0  0  0  0  0  0  0  0  0  0
   20.9718   42.1592   -2.0393 H   0  0  0  0  0  0  0  0  0  0  0  0
   22.5048   39.7874   -3.1333 H   0  0  0  0  0  0  0  0  0  0  0  0
   23.1523   41.4113   -2.9558 H   0  0  0  0  0  0  0  0  0  0  0  0
   23.2879   40.5812   -4.4862 H   0  0  0  0  0  0  0  0  0  0  0  0
   19.7731   40.9518   -5.4415 H   0  0  0  0  0  0  0  0  0  0  0  0
   20.5531   38.8318   -6.3402 H   0  0  0  0  0  0  0  0  0  0  0  0
   21.9454   38.9515   -5.3628 H   0  0  0  0  0  0  0  0  0  0  0  0
   23.1695   38.9628   -7.7581 H   0  0  0  0  0  0  0  0  0  0  0  0
   21.2187   42.5684   -8.4876 H   0  0  0  0  0  0  0  0  0  0  0  0
   22.6441   41.9398   -9.2829 H   0  0  0  0  0  0  0  0  0  0  0  0
   19.5854   43.4423   -9.8779 H   0  0  0  0  0  0  0  0  0  0  0  0
   18.8599   41.7501  -13.7615 H   0  0  0  0  0  0  0  0  0  0  0  0
   20.7483   40.1755  -13.4491 H   0  0  0  0  0  0  0  0  0  0  0  0
   22.0597   40.2464  -11.3536 H   0  0  0  0  0  0  0  0  0  0  0  0
   18.3405   45.1246  -10.8945 H   0  0  0  0  0  0  0  0  0  0  0  0
   16.8065   45.1052  -11.7097 H   0  0  0  0  0  0  0  0  0  0  0  0
   17.5530   43.4973   -9.2408 H   0  0  0  0  0  0  0  0  0  0  0  0
   16.2972   44.6755   -9.4085 H   0  0  0  0  0  0  0  0  0  0  0  0
   15.0203   43.1060  -10.8981 H   0  0  0  0  0  0  0  0  0  0  0  0
   16.3549   41.9910  -10.8539 H   0  0  0  0  0  0  0  0  0  0  0  0
   15.9988   42.0880   -8.1866 H   0  0  0  0  0  0  0  0  0  0  0  0
   14.4283   42.6910   -8.6197 H   0  0  0  0  0  0  0  0  0  0  0  0
   13.8359   40.5406   -9.0003 H   0  0  0  0  0  0  0  0  0  0  0  0
   17.5378   40.8405   -9.1727 H   0  0  0  0  0  0  0  0  0  0  0  0
   18.0990   36.5691   -9.1776 H   0  0  0  0  0  0  0  0  0  0  0  0
   15.6600   36.2489   -9.2740 H   0  0  0  0  0  0  0  0  0  0  0  0
   14.1264   38.1964   -9.2629 H   0  0  0  0  0  0  0  0  0  0  0  0
   19.2589   40.6484   -8.1108 H   0  0  0  0  0  0  0  0  0  0  0  0
   20.0098   39.7841   -4.3553 H   0  0  0  0  0  0  0  0  0  0  0  0
  1  2  1  0  0  0  0
  1 43  1  0  0  0  0
  1 44  1  0  0  0  0
  1 45  1  0  0  0  0
  2  3  1  0  0  0  0
  2  4  1  0  0  0  0
  2 46  1  0  0  0  0
  3 47  1  0  0  0  0
  3 48  1  0  0  0  0
  3 49  1  0  0  0  0
  4  5  1  0  0  0  0
  4 50  1  0  0  0  0
  4 51  1  0  0  0  0
  5 10  1  0  0  0  0
  5  6  2  0  0  0  0
  6  7  1  0  0  0  0
  6 52  1  0  0  0  0
  7  8  2  0  0  0  0
  7 11  1  0  0  0  0
  8  9  1  0  0  0  0
  8 53  1  0  0  0  0
  9 10  2  0  0  0  0
 10 54  1  0  0  0  0
 11 12  1  0  0  0  0
 11 13  1  0  0  0  0
 11 14  1  0  0  0  0
 12 55  1  0  0  0  0
 12 56  1  0  0  0  0
 12 57  1  0  0  0  0
 13 58  1  0  0  0  0
 13 59  1  0  0  0  0
 13 60  1  0  0  0  0
 14 15  1  0  0  0  0
 14 61  1  0  0  0  0
 14 85  1  0  0  0  0
 15 16  1  0  0  0  0
 15 62  1  0  0  0  0
 15 63  1  0  0  0  0
 16 41  1  1  0  0  0
 16 17  1  0  0  0  0
 16 18  1  0  0  0  0
 17 64  1  0  0  0  0
 18 42  1  6  0  0  0
 18 40  1  0  0  0  0
 18 19  1  0  0  0  0
 19 20  1  0  0  0  0
 19 65  1  0  0  0  0
 19 66  1  0  0  0  0
 20 25  1  0  0  0  0
 20 21  2  0  0  0  0
 21 22  1  0  0  0  0
 21 67  1  0  0  0  0
 22 23  2  0  0  0  0
 22 26  1  0  0  0  0
 23 24  1  0  0  0  0
 23 68  1  0  0  0  0
 24 25  2  0  0  0  0
 24 69  1  0  0  0  0
 25 70  1  0  0  0  0
 26 27  1  0  0  0  0
 27 28  1  0  0  0  0
 27 71  1  0  0  0  0
 27 72  1  0  0  0  0
 28 29  1  0  0  0  0
 28 73  1  0  0  0  0
 28 74  1  0  0  0  0
 29 30  1  0  0  0  0
 29 75  1  0  0  0  0
 29 76  1  0  0  0  0
 30 31  1  0  0  0  0
 30 77  1  0  0  0  0
 30 78  1  0  0  0  0
 31 32  1  0  0  0  0
 31 79  1  0  0  0  0
 32 37  1  0  0  0  0
 32 33  2  0  0  0  0
 33 34  1  0  0  0  0
 33 80  1  0  0  0  0
 34 35  2  0  0  0  0
 34 38  1  0  0  0  0
 35 36  1  0  0  0  0
 35 81  1  0  0  0  0
 36 37  2  0  0  0  0
 36 82  1  0  0  0  0
 37 83  1  0  0  0  0
 38 39  2  0  0  0  0
 38 40  1  0  0  0  0
 40 84  1  0  0  0  0
M  CHG  1  14   1
M  END
