BACE_88.smi:1
 OpenBabel09301811243D
Structure written by MMmdl.
 80 83  0  0  1  0  0  0  0  0999 V2000
   16.6564   39.2678   -9.4079 C   0  0  0  0  0  0  0  0  0  0  0  0
   17.7367   38.2177   -9.7123 C   0  0  0  0  0  0  0  0  0  0  0  0
   17.3335   36.8252   -9.2023 C   0  0  0  0  0  0  0  0  0  0  0  0
   19.0992   38.6375   -9.1750 C   0  0  0  0  0  0  0  0  0  0  0  0
   19.2559   39.0050   -7.8205 C   0  0  0  0  0  0  0  0  0  0  0  0
   20.5192   39.3873   -7.3237 C   0  0  0  0  0  0  0  0  0  0  0  0
   20.6746   39.7648   -5.8619 C   0  0  0  0  0  0  0  0  0  0  0  0
   20.7436   41.2294   -5.6768 N   0  3  0  0  0  0  0  0  0  0  0  0
   20.1242   42.0252   -6.7579 C   0  0  0  0  0  0  0  0  0  0  0  0
   19.7856   43.4472   -6.2770 C   0  0  1  0  0  0  0  0  0  0  0  0
   21.0000   44.1415   -6.0596 O   0  0  0  0  0  0  0  0  0  0  0  0
   18.9025   44.2245   -7.2857 C   0  0  2  0  0  0  0  0  0  0  0  0
   18.6899   43.5150   -8.6428 C   0  0  0  0  0  0  0  0  0  0  0  0
   17.7376   44.2615   -9.5632 C   0  0  0  0  0  0  0  0  0  0  0  0
   18.2315   45.0999  -10.5864 C   0  0  0  0  0  0  0  0  0  0  0  0
   17.3441   45.7806  -11.4490 C   0  0  0  0  0  0  0  0  0  0  0  0
   17.9057   46.6618  -12.5584 C   0  0  0  0  0  0  0  0  0  0  0  0
   17.9620   48.1385  -12.1871 C   0  0  0  0  0  0  0  0  0  0  0  0
   16.8562   48.9620  -12.4903 C   0  0  0  0  0  0  0  0  0  0  0  0
   16.8693   50.3282  -12.1605 C   0  0  0  0  0  0  0  0  0  0  0  0
   17.9955   50.8824  -11.5299 C   0  0  0  0  0  0  0  0  0  0  0  0
   19.1073   50.0725  -11.2349 C   0  0  0  0  0  0  0  0  0  0  0  0
   19.1072   48.6910  -11.5602 C   0  0  0  0  0  0  0  0  0  0  0  0
   20.1660   47.8424  -11.2926 O   0  0  0  0  0  0  0  0  0  0  0  0
   21.3692   48.3583  -10.7177 C   0  0  0  0  0  0  0  0  0  0  0  0
   21.2439   48.5302   -9.1971 C   0  0  0  0  0  0  0  0  0  0  0  0
   22.0951   49.1722   -8.5835 O   0  0  0  0  0  0  0  0  0  0  0  0
   20.1892   47.9491   -8.6057 N   0  0  0  0  0  0  0  0  0  0  0  0
   19.8657   47.9678   -7.1792 C   0  0  1  0  0  0  0  0  0  0  0  0
   19.0317   49.2151   -6.8385 C   0  0  0  0  0  0  0  0  0  0  0  0
   19.2546   46.6369   -6.7071 C   0  0  0  0  0  0  0  0  0  0  0  0
   18.6430   46.5799   -5.6404 O   0  0  0  0  0  0  0  0  0  0  0  0
   19.4275   45.5689   -7.5034 N   0  0  0  0  0  0  0  0  0  0  0  0
   15.9480   45.6126  -11.2797 C   0  0  0  0  0  0  0  0  0  0  0  0
   15.0550   46.2344  -12.1043 O   0  0  0  0  0  0  0  0  0  0  0  0
   15.4561   44.7859  -10.2509 C   0  0  0  0  0  0  0  0  0  0  0  0
   16.3467   44.1124   -9.3957 C   0  0  0  0  0  0  0  0  0  0  0  0
   21.6334   39.4067   -8.1882 C   0  0  0  0  0  0  0  0  0  0  0  0
   21.4838   39.0408   -9.5390 C   0  0  0  0  0  0  0  0  0  0  0  0
   20.2216   38.6571  -10.0309 C   0  0  0  0  0  0  0  0  0  0  0  0
   19.2602   43.3711   -5.3237 H   0  0  0  0  0  0  0  0  0  0  0  0
   17.9163   44.3395   -6.8314 H   0  0  0  0  0  0  0  0  0  0  0  0
   20.8022   48.0481   -6.6245 H   0  0  0  0  0  0  0  0  0  0  0  0
   16.9294   40.2406   -9.8177 H   0  0  0  0  0  0  0  0  0  0  0  0
   16.5009   39.3889   -8.3357 H   0  0  0  0  0  0  0  0  0  0  0  0
   15.7003   38.9831   -9.8482 H   0  0  0  0  0  0  0  0  0  0  0  0
   17.8165   38.1494  -10.7981 H   0  0  0  0  0  0  0  0  0  0  0  0
   18.0788   36.0775   -9.4752 H   0  0  0  0  0  0  0  0  0  0  0  0
   16.3818   36.5116   -9.6321 H   0  0  0  0  0  0  0  0  0  0  0  0
   17.2258   36.8085   -8.1177 H   0  0  0  0  0  0  0  0  0  0  0  0
   18.4043   38.9894   -7.1559 H   0  0  0  0  0  0  0  0  0  0  0  0
   19.8581   39.3505   -5.2685 H   0  0  0  0  0  0  0  0  0  0  0  0
   21.5954   39.3229   -5.4799 H   0  0  0  0  0  0  0  0  0  0  0  0
   20.2747   41.4613   -4.8129 H   0  0  0  0  0  0  0  0  0  0  0  0
   20.7860   42.0655   -7.6234 H   0  0  0  0  0  0  0  0  0  0  0  0
   19.2146   41.5138   -7.0752 H   0  0  0  0  0  0  0  0  0  0  0  0
   21.5155   43.6624   -5.4284 H   0  0  0  0  0  0  0  0  0  0  0  0
   19.6422   43.3839   -9.1583 H   0  0  0  0  0  0  0  0  0  0  0  0
   18.2908   42.5125   -8.4874 H   0  0  0  0  0  0  0  0  0  0  0  0
   19.2981   45.2180  -10.7132 H   0  0  0  0  0  0  0  0  0  0  0  0
   18.9004   46.3107  -12.8352 H   0  0  0  0  0  0  0  0  0  0  0  0
   17.3024   46.5390  -13.4586 H   0  0  0  0  0  0  0  0  0  0  0  0
   15.9879   48.5478  -12.9802 H   0  0  0  0  0  0  0  0  0  0  0  0
   16.0162   50.9491  -12.3915 H   0  0  0  0  0  0  0  0  0  0  0  0
   18.0088   51.9315  -11.2734 H   0  0  0  0  0  0  0  0  0  0  0  0
   19.9485   50.5408  -10.7485 H   0  0  0  0  0  0  0  0  0  0  0  0
   22.1588   47.6297  -10.9024 H   0  0  0  0  0  0  0  0  0  0  0  0
   21.6955   49.2809  -11.1991 H   0  0  0  0  0  0  0  0  0  0  0  0
   19.5405   47.4575   -9.2037 H   0  0  0  0  0  0  0  0  0  0  0  0
   18.8214   49.2771   -5.7703 H   0  0  0  0  0  0  0  0  0  0  0  0
   18.0777   49.2084   -7.3669 H   0  0  0  0  0  0  0  0  0  0  0  0
   19.5584   50.1284   -7.1174 H   0  0  0  0  0  0  0  0  0  0  0  0
   19.9563   45.7092   -8.3523 H   0  0  0  0  0  0  0  0  0  0  0  0
   15.4666   46.8110  -12.7299 H   0  0  0  0  0  0  0  0  0  0  0  0
   14.3912   44.6604  -10.1186 H   0  0  0  0  0  0  0  0  0  0  0  0
   15.9583   43.4769   -8.6132 H   0  0  0  0  0  0  0  0  0  0  0  0
   22.6064   39.6964   -7.8183 H   0  0  0  0  0  0  0  0  0  0  0  0
   22.3384   39.0534  -10.1994 H   0  0  0  0  0  0  0  0  0  0  0  0
   20.1207   38.3779  -11.0697 H   0  0  0  0  0  0  0  0  0  0  0  0
   21.7142   41.4976   -5.5960 H   0  0  0  0  0  0  0  0  0  0  0  0
  1  2  1  0  0  0  0
  1 44  1  0  0  0  0
  1 45  1  0  0  0  0
  1 46  1  0  0  0  0
  2  3  1  0  0  0  0
  2  4  1  0  0  0  0
  2 47  1  0  0  0  0
  3 48  1  0  0  0  0
  3 49  1  0  0  0  0
  3 50  1  0  0  0  0
  4 40  1  0  0  0  0
  4  5  2  0  0  0  0
  5  6  1  0  0  0  0
  5 51  1  0  0  0  0
  6  7  1  0  0  0  0
  6 38  2  0  0  0  0
  7  8  1  0  0  0  0
  7 52  1  0  0  0  0
  7 53  1  0  0  0  0
  8  9  1  0  0  0  0
  8 54  1  0  0  0  0
  8 80  1  0  0  0  0
  9 10  1  0  0  0  0
  9 55  1  0  0  0  0
  9 56  1  0  0  0  0
 10 41  1  1  0  0  0
 10 11  1  0  0  0  0
 10 12  1  0  0  0  0
 11 57  1  0  0  0  0
 12 42  1  1  0  0  0
 12 33  1  0  0  0  0
 12 13  1  0  0  0  0
 13 14  1  0  0  0  0
 13 58  1  0  0  0  0
 13 59  1  0  0  0  0
 14 37  1  0  0  0  0
 14 15  2  0  0  0  0
 15 16  1  0  0  0  0
 15 60  1  0  0  0  0
 16 17  1  0  0  0  0
 16 34  2  0  0  0  0
 17 18  1  0  0  0  0
 17 61  1  0  0  0  0
 17 62  1  0  0  0  0
 18 23  2  0  0  0  0
 18 19  1  0  0  0  0
 19 20  2  0  0  0  0
 19 63  1  0  0  0  0
 20 21  1  0  0  0  0
 20 64  1  0  0  0  0
 21 22  2  0  0  0  0
 21 65  1  0  0  0  0
 22 23  1  0  0  0  0
 22 66  1  0  0  0  0
 23 24  1  0  0  0  0
 24 25  1  0  0  0  0
 25 26  1  0  0  0  0
 25 67  1  0  0  0  0
 25 68  1  0  0  0  0
 26 27  2  0  0  0  0
 26 28  1  0  0  0  0
 28 29  1  0  0  0  0
 28 69  1  0  0  0  0
 29 43  1  1  0  0  0
 29 30  1  0  0  0  0
 29 31  1  0  0  0  0
 30 70  1  0  0  0  0
 30 71  1  0  0  0  0
 30 72  1  0  0  0  0
 31 32  2  0  0  0  0
 31 33  1  0  0  0  0
 33 73  1  0  0  0  0
 34 35  1  0  0  0  0
 34 36  1  0  0  0  0
 35 74  1  0  0  0  0
 36 37  2  0  0  0  0
 36 75  1  0  0  0  0
 37 76  1  0  0  0  0
 38 39  1  0  0  0  0
 38 77  1  0  0  0  0
 39 40  2  0  0  0  0
 39 78  1  0  0  0  0
 40 79  1  0  0  0  0
M  CHG  1   8   1
M  END
