BACE_16.smi:1
 OpenBabel09301811243D
Structure written by MMmdl.
 85 88  0  0  1  0  0  0  0  0999 V2000
   19.1553   48.8490   -6.8453 C   0  0  0  0  0  0  0  0  0  0  0  0
   18.0669   49.3987   -7.7606 C   0  0  0  0  0  0  0  0  0  0  0  0
   17.6603   50.5555   -7.6418 O   0  0  0  0  0  0  0  0  0  0  0  0
   17.4647   48.4874   -8.8234 C   0  0  0  0  0  0  0  0  0  0  0  0
   18.1526   47.2442   -8.8884 O   0  0  0  0  0  0  0  0  0  0  0  0
   17.6249   46.2898   -9.7327 C   0  0  0  0  0  0  0  0  0  0  0  0
   16.3222   46.3558  -10.2858 C   0  0  0  0  0  0  0  0  0  0  0  0
   15.8183   45.3225  -11.0974 C   0  0  0  0  0  0  0  0  0  0  0  0
   16.6703   44.2459  -11.4260 C   0  0  0  0  0  0  0  0  0  0  0  0
   17.9637   44.1530  -10.8843 C   0  0  0  0  0  0  0  0  0  0  0  0
   18.4331   45.1714  -10.0261 C   0  0  0  0  0  0  0  0  0  0  0  0
   18.8301   42.9937  -11.2707 C   0  0  0  0  0  0  0  0  0  0  0  0
   18.8600   42.6073  -12.4392 O   0  0  0  0  0  0  0  0  0  0  0  0
   19.4846   42.4096  -10.2560 N   0  0  0  0  0  0  0  0  0  0  0  0
   20.4798   41.3349  -10.3468 C   0  0  1  0  0  0  0  0  0  0  0  0
   19.9618   39.9954  -10.9467 C   0  0  0  0  0  0  0  0  0  0  0  0
   18.7170   39.4446  -10.2611 C   0  0  0  0  0  0  0  0  0  0  0  0
   17.4464   39.9268  -10.6302 C   0  0  0  0  0  0  0  0  0  0  0  0
   16.2710   39.4698   -9.9902 C   0  0  0  0  0  0  0  0  0  0  0  0
   16.3799   38.4638   -9.0088 C   0  0  0  0  0  0  0  0  0  0  0  0
   17.6441   37.9557   -8.6490 C   0  0  0  0  0  0  0  0  0  0  0  0
   18.8122   38.4492   -9.2672 C   0  0  0  0  0  0  0  0  0  0  0  0
   15.0252   39.9815  -10.2831 O   0  0  0  0  0  0  0  0  0  0  0  0
   14.9968   41.3615  -10.6257 C   0  0  0  0  0  0  0  0  0  0  0  0
   13.5737   41.9210  -10.5226 C   0  0  0  0  0  0  0  0  0  0  0  0
   13.5224   43.4546  -10.3916 C   0  0  0  0  0  0  0  0  0  0  0  0
   13.7889   44.1996  -11.7169 C   0  0  0  0  0  0  0  0  0  0  0  0
   14.5065   45.4149  -11.5188 O   0  0  0  0  0  0  0  0  0  0  0  0
   21.8011   41.8797  -10.9540 C   0  0  2  0  0  0  0  0  0  0  0  0
   21.7942   41.7499  -12.3646 O   0  0  0  0  0  0  0  0  0  0  0  0
   23.0559   41.1952  -10.3817 C   0  0  0  0  0  0  0  0  0  0  0  0
   24.2800   41.8827  -10.8399 N   0  3  0  0  0  0  0  0  0  0  0  0
   25.4723   41.6103  -10.0213 C   0  0  0  0  0  0  0  0  0  0  0  0
   26.6645   42.3856  -10.5483 C   0  0  0  0  0  0  0  0  0  0  0  0
   27.6250   41.7502  -11.3649 C   0  0  0  0  0  0  0  0  0  0  0  0
   28.7646   42.4542  -11.8112 C   0  0  0  0  0  0  0  0  0  0  0  0
   28.9025   43.8224  -11.4848 C   0  0  0  0  0  0  0  0  0  0  0  0
   27.9324   44.4638  -10.6921 C   0  0  0  0  0  0  0  0  0  0  0  0
   26.8219   43.7458  -10.2141 C   0  0  0  0  0  0  0  0  0  0  0  0
   29.8491   41.7266  -12.5983 C   0  0  0  0  0  0  0  0  0  0  0  0
   31.2471   41.9620  -12.0015 C   0  0  0  0  0  0  0  0  0  0  0  0
   29.8063   42.0772  -14.0899 C   0  0  0  0  0  0  0  0  0  0  0  0
   20.6874   41.1234   -9.2964 H   0  0  0  0  0  0  0  0  0  0  0  0
   21.8769   42.9448  -10.7250 H   0  0  0  0  0  0  0  0  0  0  0  0
   18.7614   48.0229   -6.2491 H   0  0  0  0  0  0  0  0  0  0  0  0
   19.5115   49.6246   -6.1662 H   0  0  0  0  0  0  0  0  0  0  0  0
   20.0005   48.4840   -7.4298 H   0  0  0  0  0  0  0  0  0  0  0  0
   16.4215   48.3352   -8.5477 H   0  0  0  0  0  0  0  0  0  0  0  0
   17.5004   48.9860   -9.7950 H   0  0  0  0  0  0  0  0  0  0  0  0
   15.6608   47.1806  -10.0760 H   0  0  0  0  0  0  0  0  0  0  0  0
   16.3453   43.4595  -12.0828 H   0  0  0  0  0  0  0  0  0  0  0  0
   19.4282   45.1186   -9.6080 H   0  0  0  0  0  0  0  0  0  0  0  0
   19.2979   42.7634   -9.3272 H   0  0  0  0  0  0  0  0  0  0  0  0
   19.7399   40.1079  -12.0079 H   0  0  0  0  0  0  0  0  0  0  0  0
   20.7458   39.2394  -10.8902 H   0  0  0  0  0  0  0  0  0  0  0  0
   17.3818   40.6546  -11.4213 H   0  0  0  0  0  0  0  0  0  0  0  0
   15.4956   38.0956   -8.5087 H   0  0  0  0  0  0  0  0  0  0  0  0
   17.7121   37.1968   -7.8813 H   0  0  0  0  0  0  0  0  0  0  0  0
   19.7753   38.0586   -8.9731 H   0  0  0  0  0  0  0  0  0  0  0  0
   15.6501   41.9143   -9.9480 H   0  0  0  0  0  0  0  0  0  0  0  0
   15.3653   41.4999  -11.6393 H   0  0  0  0  0  0  0  0  0  0  0  0
   12.9779   41.5972  -11.3739 H   0  0  0  0  0  0  0  0  0  0  0  0
   13.1119   41.4839   -9.6402 H   0  0  0  0  0  0  0  0  0  0  0  0
   12.5424   43.7502  -10.0157 H   0  0  0  0  0  0  0  0  0  0  0  0
   14.2264   43.7588   -9.6164 H   0  0  0  0  0  0  0  0  0  0  0  0
   14.2847   43.5620  -12.4397 H   0  0  0  0  0  0  0  0  0  0  0  0
   12.8317   44.4451  -12.1786 H   0  0  0  0  0  0  0  0  0  0  0  0
   22.5246   41.2124  -12.6530 H   0  0  0  0  0  0  0  0  0  0  0  0
   23.0178   41.2376   -9.2903 H   0  0  0  0  0  0  0  0  0  0  0  0
   23.1020   40.1395  -10.6569 H   0  0  0  0  0  0  0  0  0  0  0  0
   24.4607   41.5769  -11.7933 H   0  0  0  0  0  0  0  0  0  0  0  0
   25.2613   41.9038   -8.9915 H   0  0  0  0  0  0  0  0  0  0  0  0
   25.6970   40.5439  -10.0202 H   0  0  0  0  0  0  0  0  0  0  0  0
   27.5013   40.7121  -11.6361 H   0  0  0  0  0  0  0  0  0  0  0  0
   29.7575   44.3862  -11.8272 H   0  0  0  0  0  0  0  0  0  0  0  0
   28.0493   45.5075  -10.4362 H   0  0  0  0  0  0  0  0  0  0  0  0
   26.0950   44.2452   -9.5876 H   0  0  0  0  0  0  0  0  0  0  0  0
   29.6502   40.6565  -12.5156 H   0  0  0  0  0  0  0  0  0  0  0  0
   31.2598   41.7022  -10.9436 H   0  0  0  0  0  0  0  0  0  0  0  0
   31.5625   43.0002  -12.0948 H   0  0  0  0  0  0  0  0  0  0  0  0
   31.9946   41.3499  -12.5063 H   0  0  0  0  0  0  0  0  0  0  0  0
   28.8603   41.7633  -14.5323 H   0  0  0  0  0  0  0  0  0  0  0  0
   30.5965   41.5617  -14.6367 H   0  0  0  0  0  0  0  0  0  0  0  0
   29.9251   43.1485  -14.2588 H   0  0  0  0  0  0  0  0  0  0  0  0
   24.1221   42.8802  -10.8436 H   0  0  0  0  0  0  0  0  0  0  0  0
  1  2  1  0  0  0  0
  1 45  1  0  0  0  0
  1 46  1  0  0  0  0
  1 47  1  0  0  0  0
  2  3  2  0  0  0  0
  2  4  1  0  0  0  0
  4  5  1  0  0  0  0
  4 48  1  0  0  0  0
  4 49  1  0  0  0  0
  5  6  1  0  0  0  0
  6 11  1  0  0  0  0
  6  7  2  0  0  0  0
  7  8  1  0  0  0  0
  7 50  1  0  0  0  0
  8 28  1  0  0  0  0
  8  9  2  0  0  0  0
  9 10  1  0  0  0  0
  9 51  1  0  0  0  0
 10 11  2  0  0  0  0
 10 12  1  0  0  0  0
 11 52  1  0  0  0  0
 12 13  2  0  0  0  0
 12 14  1  0  0  0  0
 14 15  1  0  0  0  0
 14 53  1  0  0  0  0
 15 43  1  1  0  0  0
 15 16  1  0  0  0  0
 15 29  1  0  0  0  0
 16 17  1  0  0  0  0
 16 54  1  0  0  0  0
 16 55  1  0  0  0  0
 17 22  1  0  0  0  0
 17 18  2  0  0  0  0
 18 19  1  0  0  0  0
 18 56  1  0  0  0  0
 19 20  2  0  0  0  0
 19 23  1  0  0  0  0
 20 21  1  0  0  0  0
 20 57  1  0  0  0  0
 21 22  2  0  0  0  0
 21 58  1  0  0  0  0
 22 59  1  0  0  0  0
 23 24  1  0  0  0  0
 24 25  1  0  0  0  0
 24 60  1  0  0  0  0
 24 61  1  0  0  0  0
 25 26  1  0  0  0  0
 25 62  1  0  0  0  0
 25 63  1  0  0  0  0
 26 27  1  0  0  0  0
 26 64  1  0  0  0  0
 26 65  1  0  0  0  0
 27 28  1  0  0  0  0
 27 66  1  0  0  0  0
 27 67  1  0  0  0  0
 29 44  1  1  0  0  0
 29 30  1  0  0  0  0
 29 31  1  0  0  0  0
 30 68  1  0  0  0  0
 31 32  1  0  0  0  0
 31 69  1  0  0  0  0
 31 70  1  0  0  0  0
 32 33  1  0  0  0  0
 32 71  1  0  0  0  0
 32 85  1  0  0  0  0
 33 34  1  0  0  0  0
 33 72  1  0  0  0  0
 33 73  1  0  0  0  0
 34 39  1  0  0  0  0
 34 35  2  0  0  0  0
 35 36  1  0  0  0  0
 35 74  1  0  0  0  0
 36 37  2  0  0  0  0
 36 40  1  0  0  0  0
 37 38  1  0  0  0  0
 37 75  1  0  0  0  0
 38 39  2  0  0  0  0
 38 76  1  0  0  0  0
 39 77  1  0  0  0  0
 40 41  1  0  0  0  0
 40 42  1  0  0  0  0
 40 78  1  0  0  0  0
 41 79  1  0  0  0  0
 41 80  1  0  0  0  0
 41 81  1  0  0  0  0
 42 82  1  0  0  0  0
 42 83  1  0  0  0  0
 42 84  1  0  0  0  0
M  CHG  1  32   1
M  END
