BACE_34.smi:1
 OpenBabel09301811243D
Structure written by MMmdl.
 80 81  0  0  1  0  0  0  0  0999 V2000
   22.5676   42.9807   -2.5933 C   0  0  0  0  0  0  0  0  0  0  0  0
   21.4467   42.0371   -3.0420 C   0  0  0  0  0  0  0  0  0  0  0  0
   20.0699   42.6456   -2.7256 C   0  0  0  0  0  0  0  0  0  0  0  0
   21.5577   41.6153   -4.5068 C   0  0  0  0  0  0  0  0  0  0  0  0
   22.3730   42.3009   -5.4379 C   0  0  0  0  0  0  0  0  0  0  0  0
   22.4434   41.8699   -6.7758 C   0  0  0  0  0  0  0  0  0  0  0  0
   21.6863   40.7651   -7.2045 C   0  0  0  0  0  0  0  0  0  0  0  0
   20.8539   40.0853   -6.2923 C   0  0  0  0  0  0  0  0  0  0  0  0
   19.9930   38.9268   -6.7579 C   0  0  0  0  0  0  0  0  0  0  0  0
   18.5882   39.3499   -6.9356 N   0  3  0  0  0  0  0  0  0  0  0  0
   17.7050   38.3571   -7.5946 C   0  0  0  0  0  0  0  0  0  0  0  0
   17.9927   38.1820   -9.1122 C   0  0  1  0  0  0  0  0  0  0  0  0
   17.0629   37.2535   -9.6351 O   0  0  0  0  0  0  0  0  0  0  0  0
   17.9642   39.4693   -9.9907 C   0  0  2  0  0  0  0  0  0  0  0  0
   19.3159   40.2396   -9.9155 C   0  0  0  0  0  0  0  0  0  0  0  0
   19.7246   41.0762  -11.1498 C   0  0  2  0  0  0  0  0  0  0  0  0
   20.1285   40.1506  -12.3065 C   0  0  0  0  0  0  0  0  0  0  0  0
   20.9145   42.0146  -10.8498 C   0  0  0  0  0  0  0  0  0  0  0  0
   20.6105   43.2372   -9.9653 C   0  0  0  0  0  0  0  0  0  0  0  0
   19.8711   44.3706  -10.7008 C   0  0  0  0  0  0  0  0  0  0  0  0
   19.8506   45.6901   -9.9053 C   0  0  0  0  0  0  0  0  0  0  0  0
   18.8974   45.6702   -8.7037 C   0  0  0  0  0  0  0  0  0  0  0  0
   17.5655   45.8028   -9.1781 O   0  0  0  0  0  0  0  0  0  0  0  0
   16.5789   45.3154   -8.2793 C   0  0  0  0  0  0  0  0  0  0  0  0
   16.3568   43.8105   -8.5162 C   0  0  0  0  0  0  0  0  0  0  0  0
   16.9734   43.0143   -7.8027 O   0  0  0  0  0  0  0  0  0  0  0  0
   15.4801   43.4077   -9.4775 N   0  0  0  0  0  0  0  0  0  0  0  0
   14.9704   44.3404  -10.4973 C   0  0  0  0  0  0  0  0  0  0  0  0
   15.0845   41.9798   -9.5485 C   0  0  1  0  0  0  0  0  0  0  0  0
   13.7113   41.7644  -10.2296 C   0  0  0  0  0  0  0  0  0  0  0  0
   16.1559   41.1825  -10.3126 C   0  0  0  0  0  0  0  0  0  0  0  0
   16.3326   41.3486  -11.5201 O   0  0  0  0  0  0  0  0  0  0  0  0
   16.8667   40.3318   -9.5631 N   0  0  0  0  0  0  0  0  0  0  0  0
   20.8158   40.5020   -4.9467 C   0  0  0  0  0  0  0  0  0  0  0  0
   18.9586   37.6918   -9.2341 H   0  0  0  0  0  0  0  0  0  0  0  0
   17.7841   39.1637  -11.0215 H   0  0  0  0  0  0  0  0  0  0  0  0
   18.8796   41.6793  -11.4732 H   0  0  0  0  0  0  0  0  0  0  0  0
   14.9873   41.5905   -8.5321 H   0  0  0  0  0  0  0  0  0  0  0  0
   23.5415   42.5503   -2.8240 H   0  0  0  0  0  0  0  0  0  0  0  0
   22.5177   43.1658   -1.5200 H   0  0  0  0  0  0  0  0  0  0  0  0
   22.5002   43.9465   -3.0920 H   0  0  0  0  0  0  0  0  0  0  0  0
   21.5476   41.1263   -2.4505 H   0  0  0  0  0  0  0  0  0  0  0  0
   19.2743   41.9121   -2.8409 H   0  0  0  0  0  0  0  0  0  0  0  0
   19.8529   43.4861   -3.3853 H   0  0  0  0  0  0  0  0  0  0  0  0
   20.0209   43.0076   -1.6976 H   0  0  0  0  0  0  0  0  0  0  0  0
   22.9614   43.1574   -5.1471 H   0  0  0  0  0  0  0  0  0  0  0  0
   23.0754   42.3917   -7.4789 H   0  0  0  0  0  0  0  0  0  0  0  0
   21.7484   40.4510   -8.2363 H   0  0  0  0  0  0  0  0  0  0  0  0
   20.0303   38.1173   -6.0402 H   0  0  0  0  0  0  0  0  0  0  0  0
   20.4080   38.5281   -7.6836 H   0  0  0  0  0  0  0  0  0  0  0  0
   18.5780   40.2057   -7.4708 H   0  0  0  0  0  0  0  0  0  0  0  0
   16.6690   38.6651   -7.4354 H   0  0  0  0  0  0  0  0  0  0  0  0
   17.8055   37.3962   -7.0867 H   0  0  0  0  0  0  0  0  0  0  0  0
   17.2612   37.0846  -10.5460 H   0  0  0  0  0  0  0  0  0  0  0  0
   19.2966   40.8812   -9.0376 H   0  0  0  0  0  0  0  0  0  0  0  0
   20.1266   39.5350   -9.7427 H   0  0  0  0  0  0  0  0  0  0  0  0
   20.2084   40.6997  -13.2450 H   0  0  0  0  0  0  0  0  0  0  0  0
   19.4084   39.3529  -12.4402 H   0  0  0  0  0  0  0  0  0  0  0  0
   21.0923   39.6782  -12.1184 H   0  0  0  0  0  0  0  0  0  0  0  0
   21.7125   41.4339  -10.3853 H   0  0  0  0  0  0  0  0  0  0  0  0
   21.3413   42.3735  -11.7877 H   0  0  0  0  0  0  0  0  0  0  0  0
   21.5654   43.6273   -9.6102 H   0  0  0  0  0  0  0  0  0  0  0  0
   20.0660   42.9447   -9.0697 H   0  0  0  0  0  0  0  0  0  0  0  0
   18.8545   44.0650  -10.9524 H   0  0  0  0  0  0  0  0  0  0  0  0
   20.3754   44.5582  -11.6505 H   0  0  0  0  0  0  0  0  0  0  0  0
   20.8615   45.9163   -9.5628 H   0  0  0  0  0  0  0  0  0  0  0  0
   19.5690   46.5106  -10.5662 H   0  0  0  0  0  0  0  0  0  0  0  0
   19.0446   44.7628   -8.1189 H   0  0  0  0  0  0  0  0  0  0  0  0
   19.1076   46.5085   -8.0388 H   0  0  0  0  0  0  0  0  0  0  0  0
   16.8640   45.4978   -7.2401 H   0  0  0  0  0  0  0  0  0  0  0  0
   15.6494   45.8633   -8.4342 H   0  0  0  0  0  0  0  0  0  0  0  0
   14.7354   43.8414  -11.4372 H   0  0  0  0  0  0  0  0  0  0  0  0
   15.7042   45.1038  -10.7643 H   0  0  0  0  0  0  0  0  0  0  0  0
   14.0702   44.8422  -10.1362 H   0  0  0  0  0  0  0  0  0  0  0  0
   13.3642   40.7482  -10.0419 H   0  0  0  0  0  0  0  0  0  0  0  0
   13.7283   41.8995  -11.3090 H   0  0  0  0  0  0  0  0  0  0  0  0
   12.9517   42.4263   -9.8143 H   0  0  0  0  0  0  0  0  0  0  0  0
   16.5832   40.2712   -8.5967 H   0  0  0  0  0  0  0  0  0  0  0  0
   20.1766   39.9857   -4.2469 H   0  0  0  0  0  0  0  0  0  0  0  0
   18.2050   39.5770   -6.0257 H   0  0  0  0  0  0  0  0  0  0  0  0
  1  2  1  0  0  0  0
  1 39  1  0  0  0  0
  1 40  1  0  0  0  0
  1 41  1  0  0  0  0
  2  3  1  0  0  0  0
  2  4  1  0  0  0  0
  2 42  1  0  0  0  0
  3 43  1  0  0  0  0
  3 44  1  0  0  0  0
  3 45  1  0  0  0  0
  4 34  1  0  0  0  0
  4  5  2  0  0  0  0
  5  6  1  0  0  0  0
  5 46  1  0  0  0  0
  6  7  2  0  0  0  0
  6 47  1  0  0  0  0
  7  8  1  0  0  0  0
  7 48  1  0  0  0  0
  8  9  1  0  0  0  0
  8 34  2  0  0  0  0
  9 10  1  0  0  0  0
  9 49  1  0  0  0  0
  9 50  1  0  0  0  0
 10 11  1  0  0  0  0
 10 51  1  0  0  0  0
 10 80  1  0  0  0  0
 11 12  1  0  0  0  0
 11 52  1  0  0  0  0
 11 53  1  0  0  0  0
 12 35  1  6  0  0  0
 12 13  1  0  0  0  0
 12 14  1  0  0  0  0
 13 54  1  0  0  0  0
 14 36  1  6  0  0  0
 14 33  1  0  0  0  0
 14 15  1  0  0  0  0
 15 16  1  0  0  0  0
 15 55  1  0  0  0  0
 15 56  1  0  0  0  0
 16 37  1  6  0  0  0
 16 17  1  0  0  0  0
 16 18  1  0  0  0  0
 17 57  1  0  0  0  0
 17 58  1  0  0  0  0
 17 59  1  0  0  0  0
 18 19  1  0  0  0  0
 18 60  1  0  0  0  0
 18 61  1  0  0  0  0
 19 20  1  0  0  0  0
 19 62  1  0  0  0  0
 19 63  1  0  0  0  0
 20 21  1  0  0  0  0
 20 64  1  0  0  0  0
 20 65  1  0  0  0  0
 21 22  1  0  0  0  0
 21 66  1  0  0  0  0
 21 67  1  0  0  0  0
 22 23  1  0  0  0  0
 22 68  1  0  0  0  0
 22 69  1  0  0  0  0
 23 24  1  0  0  0  0
 24 25  1  0  0  0  0
 24 70  1  0  0  0  0
 24 71  1  0  0  0  0
 25 26  2  0  0  0  0
 25 27  1  0  0  0  0
 27 28  1  0  0  0  0
 27 29  1  0  0  0  0
 28 72  1  0  0  0  0
 28 73  1  0  0  0  0
 28 74  1  0  0  0  0
 29 38  1  1  0  0  0
 29 30  1  0  0  0  0
 29 31  1  0  0  0  0
 30 75  1  0  0  0  0
 30 76  1  0  0  0  0
 30 77  1  0  0  0  0
 31 32  2  0  0  0  0
 31 33  1  0  0  0  0
 33 78  1  0  0  0  0
 34 79  1  0  0  0  0
M  CHG  1  10   1
M  END
