BACE_91.smi:1
 OpenBabel09301811243D
Structure written by MMmdl.
 92 95  0  0  1  0  0  0  0  0999 V2000
   25.4789   50.9566   -1.0437 C   0  0  0  0  0  0  0  0  0  0  0  0
   24.9009   49.5894   -1.4136 C   0  0  0  0  0  0  0  0  0  0  0  0
   24.3481   48.8871   -0.1705 C   0  0  0  0  0  0  0  0  0  0  0  0
   23.8725   49.7303   -2.5298 C   0  0  0  0  0  0  0  0  0  0  0  0
   23.9769   48.9144   -3.6813 C   0  0  0  0  0  0  0  0  0  0  0  0
   23.1168   49.1185   -4.7845 C   0  0  0  0  0  0  0  0  0  0  0  0
   22.1533   50.1563   -4.7472 C   0  0  0  0  0  0  0  0  0  0  0  0
   22.0238   50.9305   -3.5747 C   0  0  0  0  0  0  0  0  0  0  0  0
   22.8630   50.7125   -2.4677 C   0  0  0  0  0  0  0  0  0  0  0  0
   21.3685   50.5003   -5.8290 O   0  0  0  0  0  0  0  0  0  0  0  0
   21.2861   49.6045   -6.9414 C   0  0  0  0  0  0  0  0  0  0  0  0
   20.8596   50.4684   -8.1396 C   0  0  0  0  0  0  0  0  0  0  0  0
   20.1818   48.5677   -6.6564 C   0  0  0  0  0  0  0  0  0  0  0  0
   22.6609   48.9650   -7.2420 C   0  0  0  0  0  0  0  0  0  0  0  0
   23.2731   48.2546   -6.0241 C   0  0  2  0  0  0  0  0  0  0  0  0
   22.6449   46.9401   -5.7781 N   0  3  0  0  0  0  0  0  0  0  0  0
   23.0204   45.8417   -6.6931 C   0  0  0  0  0  0  0  0  0  0  0  0
   22.3483   44.5249   -6.2406 C   0  0  1  0  0  0  0  0  0  0  0  0
   22.4689   44.4568   -4.8356 O   0  0  0  0  0  0  0  0  0  0  0  0
   20.8721   44.3906   -6.7045 C   0  0  2  0  0  0  0  0  0  0  0  0
   20.0783   43.2729   -5.9695 C   0  0  0  0  0  0  0  0  0  0  0  0
   20.7278   41.8982   -6.0404 C   0  0  0  0  0  0  0  0  0  0  0  0
   20.6075   41.1158   -7.2077 C   0  0  0  0  0  0  0  0  0  0  0  0
   21.2524   39.8594   -7.3081 C   0  0  0  0  0  0  0  0  0  0  0  0
   21.9789   39.3866   -6.1993 C   0  0  0  0  0  0  0  0  0  0  0  0
   22.0610   40.1382   -5.0140 C   0  0  0  0  0  0  0  0  0  0  0  0
   21.4386   41.3956   -4.9339 C   0  0  0  0  0  0  0  0  0  0  0  0
   21.2312   39.0483   -8.4248 O   0  0  0  0  0  0  0  0  0  0  0  0
   20.4830   39.4443   -9.5714 C   0  0  0  0  0  0  0  0  0  0  0  0
   18.9909   39.1060   -9.3927 C   0  0  0  0  0  0  0  0  0  0  0  0
   18.1090   39.4392  -10.6114 C   0  0  0  0  0  0  0  0  0  0  0  0
   17.8016   40.9358  -10.7981 C   0  0  0  0  0  0  0  0  0  0  0  0
   18.6546   41.6176  -11.8877 C   0  0  0  0  0  0  0  0  0  0  0  0
   18.2748   43.0980  -12.0513 C   0  0  0  0  0  0  0  0  0  0  0  0
   17.3460   43.3529  -12.8259 O   0  0  0  0  0  0  0  0  0  0  0  0
   18.9471   44.0645  -11.3710 N   0  0  0  0  0  0  0  0  0  0  0  0
   18.6291   45.4662  -11.6723 C   0  0  0  0  0  0  0  0  0  0  0  0
   20.0511   43.8061  -10.4120 C   0  0  1  0  0  0  0  0  0  0  0  0
   21.4139   43.8959  -11.1293 C   0  0  0  0  0  0  0  0  0  0  0  0
   19.9906   44.5278   -9.0453 C   0  0  0  0  0  0  0  0  0  0  0  0
   19.1632   45.4020   -8.7945 O   0  0  0  0  0  0  0  0  0  0  0  0
   20.8692   44.0932   -8.1329 N   0  0  0  0  0  0  0  0  0  0  0  0
   24.3380   48.0955   -6.1978 H   0  0  0  0  0  0  0  0  0  0  0  0
   22.9249   43.6877   -6.6417 H   0  0  0  0  0  0  0  0  0  0  0  0
   20.3565   45.3354   -6.5215 H   0  0  0  0  0  0  0  0  0  0  0  0
   19.9656   42.7770  -10.0708 H   0  0  0  0  0  0  0  0  0  0  0  0
   25.6724   51.5347   -1.9466 H   0  0  0  0  0  0  0  0  0  0  0  0
   26.4012   50.8603   -0.4750 H   0  0  0  0  0  0  0  0  0  0  0  0
   24.7871   51.5482   -0.4430 H   0  0  0  0  0  0  0  0  0  0  0  0
   25.7232   48.9832   -1.8022 H   0  0  0  0  0  0  0  0  0  0  0  0
   23.8312   47.9625   -0.4246 H   0  0  0  0  0  0  0  0  0  0  0  0
   23.6560   49.5404    0.3569 H   0  0  0  0  0  0  0  0  0  0  0  0
   25.1552   48.6518    0.5268 H   0  0  0  0  0  0  0  0  0  0  0  0
   24.7488   48.1559   -3.7330 H   0  0  0  0  0  0  0  0  0  0  0  0
   21.2792   51.7154   -3.5285 H   0  0  0  0  0  0  0  0  0  0  0  0
   22.7582   51.3436   -1.5961 H   0  0  0  0  0  0  0  0  0  0  0  0
   20.7231   49.8596   -9.0332 H   0  0  0  0  0  0  0  0  0  0  0  0
   21.6046   51.2290   -8.3744 H   0  0  0  0  0  0  0  0  0  0  0  0
   19.9180   50.9860   -7.9449 H   0  0  0  0  0  0  0  0  0  0  0  0
   20.2105   47.7510   -7.3783 H   0  0  0  0  0  0  0  0  0  0  0  0
   19.2021   49.0233   -6.7287 H   0  0  0  0  0  0  0  0  0  0  0  0
   20.2513   48.1502   -5.6583 H   0  0  0  0  0  0  0  0  0  0  0  0
   23.3473   49.7631   -7.5323 H   0  0  0  0  0  0  0  0  0  0  0  0
   22.6046   48.3039   -8.1075 H   0  0  0  0  0  0  0  0  0  0  0  0
   22.8837   46.6258   -4.8461 H   0  0  0  0  0  0  0  0  0  0  0  0
   22.7125   46.0923   -7.7073 H   0  0  0  0  0  0  0  0  0  0  0  0
   24.1082   45.7203   -6.6977 H   0  0  0  0  0  0  0  0  0  0  0  0
   21.8840   43.7804   -4.5118 H   0  0  0  0  0  0  0  0  0  0  0  0
   19.9304   43.5481   -4.9257 H   0  0  0  0  0  0  0  0  0  0  0  0
   19.0726   43.2011   -6.3860 H   0  0  0  0  0  0  0  0  0  0  0  0
   20.0181   41.5031   -8.0226 H   0  0  0  0  0  0  0  0  0  0  0  0
   22.4597   38.4210   -6.2637 H   0  0  0  0  0  0  0  0  0  0  0  0
   22.5941   39.7452   -4.1638 H   0  0  0  0  0  0  0  0  0  0  0  0
   21.5079   41.9597   -4.0175 H   0  0  0  0  0  0  0  0  0  0  0  0
   20.8732   38.8775  -10.4181 H   0  0  0  0  0  0  0  0  0  0  0  0
   20.6469   40.4907   -9.8196 H   0  0  0  0  0  0  0  0  0  0  0  0
   18.5892   39.5968   -8.5069 H   0  0  0  0  0  0  0  0  0  0  0  0
   18.9087   38.0400   -9.1900 H   0  0  0  0  0  0  0  0  0  0  0  0
   18.5331   39.0060  -11.5194 H   0  0  0  0  0  0  0  0  0  0  0  0
   17.1591   38.9218  -10.4774 H   0  0  0  0  0  0  0  0  0  0  0  0
   16.7520   41.0341  -11.0799 H   0  0  0  0  0  0  0  0  0  0  0  0
   17.8966   41.4619   -9.8475 H   0  0  0  0  0  0  0  0  0  0  0  0
   19.7209   41.4777  -11.7252 H   0  0  0  0  0  0  0  0  0  0  0  0
   18.4622   41.1218  -12.8381 H   0  0  0  0  0  0  0  0  0  0  0  0
   18.5379   45.6357  -12.7474 H   0  0  0  0  0  0  0  0  0  0  0  0
   19.4058   46.1458  -11.3269 H   0  0  0  0  0  0  0  0  0  0  0  0
   17.6895   45.7538  -11.1972 H   0  0  0  0  0  0  0  0  0  0  0  0
   21.5872   44.8920  -11.5346 H   0  0  0  0  0  0  0  0  0  0  0  0
   21.4708   43.1911  -11.9614 H   0  0  0  0  0  0  0  0  0  0  0  0
   22.2435   43.6663  -10.4592 H   0  0  0  0  0  0  0  0  0  0  0  0
   21.5059   43.3670   -8.4267 H   0  0  0  0  0  0  0  0  0  0  0  0
   21.6442   47.0531   -5.8314 H   0  0  0  0  0  0  0  0  0  0  0  0
  1  2  1  0  0  0  0
  1 47  1  0  0  0  0
  1 48  1  0  0  0  0
  1 49  1  0  0  0  0
  2  3  1  0  0  0  0
  2  4  1  0  0  0  0
  2 50  1  0  0  0  0
  3 51  1  0  0  0  0
  3 52  1  0  0  0  0
  3 53  1  0  0  0  0
  4  9  1  0  0  0  0
  4  5  2  0  0  0  0
  5  6  1  0  0  0  0
  5 54  1  0  0  0  0
  6 15  1  0  0  0  0
  6  7  2  0  0  0  0
  7  8  1  0  0  0  0
  7 10  1  0  0  0  0
  8  9  2  0  0  0  0
  8 55  1  0  0  0  0
  9 56  1  0  0  0  0
 10 11  1  0  0  0  0
 11 12  1  0  0  0  0
 11 13  1  0  0  0  0
 11 14  1  0  0  0  0
 12 57  1  0  0  0  0
 12 58  1  0  0  0  0
 12 59  1  0  0  0  0
 13 60  1  0  0  0  0
 13 61  1  0  0  0  0
 13 62  1  0  0  0  0
 14 15  1  0  0  0  0
 14 63  1  0  0  0  0
 14 64  1  0  0  0  0
 15 43  1  6  0  0  0
 15 16  1  0  0  0  0
 16 17  1  0  0  0  0
 16 65  1  0  0  0  0
 16 92  1  0  0  0  0
 17 18  1  0  0  0  0
 17 66  1  0  0  0  0
 17 67  1  0  0  0  0
 18 44  1  6  0  0  0
 18 19  1  0  0  0  0
 18 20  1  0  0  0  0
 19 68  1  0  0  0  0
 20 45  1  1  0  0  0
 20 42  1  0  0  0  0
 20 21  1  0  0  0  0
 21 22  1  0  0  0  0
 21 69  1  0  0  0  0
 21 70  1  0  0  0  0
 22 27  1  0  0  0  0
 22 23  2  0  0  0  0
 23 24  1  0  0  0  0
 23 71  1  0  0  0  0
 24 25  2  0  0  0  0
 24 28  1  0  0  0  0
 25 26  1  0  0  0  0
 25 72  1  0  0  0  0
 26 27  2  0  0  0  0
 26 73  1  0  0  0  0
 27 74  1  0  0  0  0
 28 29  1  0  0  0  0
 29 30  1  0  0  0  0
 29 75  1  0  0  0  0
 29 76  1  0  0  0  0
 30 31  1  0  0  0  0
 30 77  1  0  0  0  0
 30 78  1  0  0  0  0
 31 32  1  0  0  0  0
 31 79  1  0  0  0  0
 31 80  1  0  0  0  0
 32 33  1  0  0  0  0
 32 81  1  0  0  0  0
 32 82  1  0  0  0  0
 33 34  1  0  0  0  0
 33 83  1  0  0  0  0
 33 84  1  0  0  0  0
 34 35  2  0  0  0  0
 34 36  1  0  0  0  0
 36 37  1  0  0  0  0
 36 38  1  0  0  0  0
 37 85  1  0  0  0  0
 37 86  1  0  0  0  0
 37 87  1  0  0  0  0
 38 46  1  1  0  0  0
 38 39  1  0  0  0  0
 38 40  1  0  0  0  0
 39 88  1  0  0  0  0
 39 89  1  0  0  0  0
 39 90  1  0  0  0  0
 40 41  2  0  0  0  0
 40 42  1  0  0  0  0
 42 91  1  0  0  0  0
M  CHG  1  16   1
M  END
