BACE_70.smi:1
 OpenBabel09301811243D
Structure written by MMmdl.
 86 88  0  0  1  0  0  0  0  0999 V2000
   18.4706   48.0444   -5.4949 C   0  0  0  0  0  0  0  0  0  0  0  0
   18.9910   47.6315   -6.8807 C   0  0  0  0  0  0  0  0  0  0  0  0
   17.8564   47.0648   -7.7516 C   0  0  0  0  0  0  0  0  0  0  0  0
   20.1622   46.6594   -6.8197 C   0  0  0  0  0  0  0  0  0  0  0  0
   20.0201   45.3882   -6.2227 C   0  0  0  0  0  0  0  0  0  0  0  0
   21.0713   44.4338   -6.2561 C   0  0  0  0  0  0  0  0  0  0  0  0
   22.2873   44.8104   -6.8784 C   0  0  0  0  0  0  0  0  0  0  0  0
   22.4471   46.0867   -7.4502 C   0  0  0  0  0  0  0  0  0  0  0  0
   21.3869   47.0071   -7.4236 C   0  0  0  0  0  0  0  0  0  0  0  0
   20.8873   43.0334   -5.6221 C   0  0  0  0  0  0  0  0  0  0  0  0
   22.2397   42.3245   -5.3707 C   0  0  0  0  0  0  0  0  0  0  0  0
   20.2368   43.1532   -4.2295 C   0  0  0  0  0  0  0  0  0  0  0  0
   20.0605   42.0985   -6.4402 N   0  3  0  0  0  0  0  0  0  0  0  0
   19.2903   42.5518   -7.6282 C   0  0  0  0  0  0  0  0  0  0  0  0
   20.0990   42.6483   -8.9623 C   0  0  1  0  0  0  0  0  0  0  0  0
   21.4408   42.2301   -8.7822 O   0  0  0  0  0  0  0  0  0  0  0  0
   19.4463   41.8418  -10.1326 C   0  0  2  0  0  0  0  0  0  0  0  0
   20.0606   40.4425  -10.4193 C   0  0  0  0  0  0  0  0  0  0  0  0
   19.8957   39.4212   -9.2675 C   0  0  2  0  0  0  0  0  0  0  0  0
   21.0824   38.4437   -9.2010 C   0  0  0  0  0  0  0  0  0  0  0  0
   18.5443   38.6761   -9.3744 C   0  0  0  0  0  0  0  0  0  0  0  0
   18.0801   37.9786   -8.0802 C   0  0  0  0  0  0  0  0  0  0  0  0
   17.6372   38.9224   -6.9474 C   0  0  0  0  0  0  0  0  0  0  0  0
   16.3917   39.7799   -7.2382 C   0  0  0  0  0  0  0  0  0  0  0  0
   15.0575   39.0097   -7.2388 C   0  0  0  0  0  0  0  0  0  0  0  0
   14.5746   38.5198   -8.6069 C   0  0  0  0  0  0  0  0  0  0  0  0
   14.1444   39.6600   -9.5159 C   0  0  0  0  0  0  0  0  0  0  0  0
   15.1203   39.9679  -10.5373 N   0  0  0  0  0  0  0  0  0  0  0  0
   15.3605   41.3033  -10.8426 C   0  0  0  0  0  0  0  0  0  0  0  0
   14.4171   42.3384  -10.6519 C   0  0  0  0  0  0  0  0  0  0  0  0
   14.8001   43.6583  -10.9513 C   0  0  0  0  0  0  0  0  0  0  0  0
   16.1025   43.8919  -11.4307 C   0  0  0  0  0  0  0  0  0  0  0  0
   16.9720   42.7899  -11.5814 C   0  0  0  0  0  0  0  0  0  0  0  0
   16.5830   41.5231  -11.3433 N   0  0  0  0  0  0  0  0  0  0  0  0
   18.3501   42.9882  -12.1323 C   0  0  0  0  0  0  0  0  0  0  0  0
   18.4593   43.5157  -13.2398 O   0  0  0  0  0  0  0  0  0  0  0  0
   19.4155   42.6207  -11.3832 N   0  0  0  0  0  0  0  0  0  0  0  0
   20.1431   43.7058   -9.2249 H   0  0  0  0  0  0  0  0  0  0  0  0
   18.4287   41.6551   -9.8177 H   0  0  0  0  0  0  0  0  0  0  0  0
   19.9162   39.9665   -8.3303 H   0  0  0  0  0  0  0  0  0  0  0  0
   19.2229   48.5356   -4.8685 H   0  0  0  0  0  0  0  0  0  0  0  0
   18.0725   47.1913   -4.9462 H   0  0  0  0  0  0  0  0  0  0  0  0
   17.6609   48.7551   -5.6402 H   0  0  0  0  0  0  0  0  0  0  0  0
   19.3432   48.5419   -7.3674 H   0  0  0  0  0  0  0  0  0  0  0  0
   18.2191   46.8238   -8.7517 H   0  0  0  0  0  0  0  0  0  0  0  0
   17.0453   47.7830   -7.8639 H   0  0  0  0  0  0  0  0  0  0  0  0
   17.4398   46.1528   -7.3222 H   0  0  0  0  0  0  0  0  0  0  0  0
   19.0661   45.1344   -5.7871 H   0  0  0  0  0  0  0  0  0  0  0  0
   23.1274   44.1367   -6.9414 H   0  0  0  0  0  0  0  0  0  0  0  0
   23.3817   46.3521   -7.9223 H   0  0  0  0  0  0  0  0  0  0  0  0
   21.5133   47.9717   -7.8898 H   0  0  0  0  0  0  0  0  0  0  0  0
   22.9045   42.9362   -4.7575 H   0  0  0  0  0  0  0  0  0  0  0  0
   22.7655   42.0845   -6.2958 H   0  0  0  0  0  0  0  0  0  0  0  0
   22.1026   41.3816   -4.8399 H   0  0  0  0  0  0  0  0  0  0  0  0
   20.8517   43.7495   -3.5570 H   0  0  0  0  0  0  0  0  0  0  0  0
   20.0836   42.1794   -3.7622 H   0  0  0  0  0  0  0  0  0  0  0  0
   19.2604   43.6177   -4.2644 H   0  0  0  0  0  0  0  0  0  0  0  0
   20.6706   41.3587   -6.7569 H   0  0  0  0  0  0  0  0  0  0  0  0
   18.5148   41.7944   -7.7232 H   0  0  0  0  0  0  0  0  0  0  0  0
   18.7332   43.4652   -7.4326 H   0  0  0  0  0  0  0  0  0  0  0  0
   21.5048   41.3043   -8.9803 H   0  0  0  0  0  0  0  0  0  0  0  0
   19.6033   40.0221  -11.3176 H   0  0  0  0  0  0  0  0  0  0  0  0
   21.1119   40.5567  -10.6843 H   0  0  0  0  0  0  0  0  0  0  0  0
   21.0839   37.7547  -10.0401 H   0  0  0  0  0  0  0  0  0  0  0  0
   21.0518   37.8442   -8.2922 H   0  0  0  0  0  0  0  0  0  0  0  0
   22.0391   38.9690   -9.2007 H   0  0  0  0  0  0  0  0  0  0  0  0
   17.7665   39.3637   -9.6983 H   0  0  0  0  0  0  0  0  0  0  0  0
   18.6123   37.9328  -10.1708 H   0  0  0  0  0  0  0  0  0  0  0  0
   17.2692   37.2873   -8.3047 H   0  0  0  0  0  0  0  0  0  0  0  0
   18.8831   37.3509   -7.7043 H   0  0  0  0  0  0  0  0  0  0  0  0
   17.4517   38.3326   -6.0493 H   0  0  0  0  0  0  0  0  0  0  0  0
   18.4642   39.5763   -6.6807 H   0  0  0  0  0  0  0  0  0  0  0  0
   16.3267   40.5224   -6.4457 H   0  0  0  0  0  0  0  0  0  0  0  0
   16.5122   40.3679   -8.1450 H   0  0  0  0  0  0  0  0  0  0  0  0
   15.1104   38.1536   -6.5761 H   0  0  0  0  0  0  0  0  0  0  0  0
   14.2848   39.6466   -6.8031 H   0  0  0  0  0  0  0  0  0  0  0  0
   15.2893   37.8543   -9.0904 H   0  0  0  0  0  0  0  0  0  0  0  0
   13.6840   37.9174   -8.4396 H   0  0  0  0  0  0  0  0  0  0  0  0
   13.2599   39.3446  -10.0400 H   0  0  0  0  0  0  0  0  0  0  0  0
   13.8838   40.5283   -8.9154 H   0  0  0  0  0  0  0  0  0  0  0  0
   15.9060   39.3403  -10.6190 H   0  0  0  0  0  0  0  0  0  0  0  0
   13.4249   42.1371  -10.2730 H   0  0  0  0  0  0  0  0  0  0  0  0
   14.1081   44.4765  -10.8107 H   0  0  0  0  0  0  0  0  0  0  0  0
   16.4321   44.8943  -11.6680 H   0  0  0  0  0  0  0  0  0  0  0  0
   20.3191   42.8299  -11.7807 H   0  0  0  0  0  0  0  0  0  0  0  0
   19.3779   41.6979   -5.8000 H   0  0  0  0  0  0  0  0  0  0  0  0
  1  2  1  0  0  0  0
  1 41  1  0  0  0  0
  1 42  1  0  0  0  0
  1 43  1  0  0  0  0
  2  3  1  0  0  0  0
  2  4  1  0  0  0  0
  2 44  1  0  0  0  0
  3 45  1  0  0  0  0
  3 46  1  0  0  0  0
  3 47  1  0  0  0  0
  4  9  1  0  0  0  0
  4  5  2  0  0  0  0
  5  6  1  0  0  0  0
  5 48  1  0  0  0  0
  6  7  2  0  0  0  0
  6 10  1  0  0  0  0
  7  8  1  0  0  0  0
  7 49  1  0  0  0  0
  8  9  2  0  0  0  0
  8 50  1  0  0  0  0
  9 51  1  0  0  0  0
 10 11  1  0  0  0  0
 10 12  1  0  0  0  0
 10 13  1  0  0  0  0
 11 52  1  0  0  0  0
 11 53  1  0  0  0  0
 11 54  1  0  0  0  0
 12 55  1  0  0  0  0
 12 56  1  0  0  0  0
 12 57  1  0  0  0  0
 13 14  1  0  0  0  0
 13 58  1  0  0  0  0
 13 86  1  0  0  0  0
 14 15  1  0  0  0  0
 14 59  1  0  0  0  0
 14 60  1  0  0  0  0
 15 38  1  6  0  0  0
 15 16  1  0  0  0  0
 15 17  1  0  0  0  0
 16 61  1  0  0  0  0
 17 39  1  1  0  0  0
 17 37  1  0  0  0  0
 17 18  1  0  0  0  0
 18 19  1  0  0  0  0
 18 62  1  0  0  0  0
 18 63  1  0  0  0  0
 19 40  1  1  0  0  0
 19 20  1  0  0  0  0
 19 21  1  0  0  0  0
 20 64  1  0  0  0  0
 20 65  1  0  0  0  0
 20 66  1  0  0  0  0
 21 22  1  0  0  0  0
 21 67  1  0  0  0  0
 21 68  1  0  0  0  0
 22 23  1  0  0  0  0
 22 69  1  0  0  0  0
 22 70  1  0  0  0  0
 23 24  1  0  0  0  0
 23 71  1  0  0  0  0
 23 72  1  0  0  0  0
 24 25  1  0  0  0  0
 24 73  1  0  0  0  0
 24 74  1  0  0  0  0
 25 26  1  0  0  0  0
 25 75  1  0  0  0  0
 25 76  1  0  0  0  0
 26 27  1  0  0  0  0
 26 77  1  0  0  0  0
 26 78  1  0  0  0  0
 27 28  1  0  0  0  0
 27 79  1  0  0  0  0
 27 80  1  0  0  0  0
 28 29  1  0  0  0  0
 28 81  1  0  0  0  0
 29 34  1  0  0  0  0
 29 30  2  0  0  0  0
 30 31  1  0  0  0  0
 30 82  1  0  0  0  0
 31 32  2  0  0  0  0
 31 83  1  0  0  0  0
 32 33  1  0  0  0  0
 32 84  1  0  0  0  0
 33 34  2  0  0  0  0
 33 35  1  0  0  0  0
 35 36  2  0  0  0  0
 35 37  1  0  0  0  0
 37 85  1  0  0  0  0
M  CHG  1  13   1
M  END
