BACE_153.smi:1
 OpenBabel09301811243D
Structure written by MMmdl.
 75 76  0  0  1  0  0  0  0  0999 V2000
   21.0463   44.1395    0.7198 C   0  0  0  0  0  0  0  0  0  0  0  0
   20.3333   43.0172   -0.0421 C   0  0  0  0  0  0  0  0  0  0  0  0
   20.8293   42.8816   -1.4839 C   0  0  0  0  0  0  0  0  0  0  0  0
   20.3379   41.6040   -2.1752 C   0  0  0  0  0  0  0  0  0  0  0  0
   20.5902   41.6370   -3.6096 N   0  0  0  0  0  0  0  0  0  0  0  0
   21.7797   41.5276   -4.2232 C   0  0  0  0  0  0  0  0  0  0  0  0
   22.8449   41.3785   -3.6306 O   0  0  0  0  0  0  0  0  0  0  0  0
   21.7830   41.5508   -5.7539 C   0  0  2  0  0  0  0  0  0  0  0  0
   20.6826   42.4890   -6.3011 C   0  0  0  0  0  0  0  0  0  0  0  0
   21.8115   40.0800   -6.2605 C   0  0  0  0  0  0  0  0  0  0  0  0
   21.6034   39.8160   -7.7675 C   0  0  2  0  0  0  0  0  0  0  0  0
   22.4254   40.7093   -8.4925 O   0  0  0  0  0  0  0  0  0  0  0  0
   20.1154   39.8491   -8.2146 C   0  0  2  0  0  0  0  0  0  0  0  0
   19.2877   38.6851   -7.6194 C   0  0  0  0  0  0  0  0  0  0  0  0
   17.8784   38.5881   -8.1797 C   0  0  0  0  0  0  0  0  0  0  0  0
   17.0121   39.6929   -8.0608 C   0  0  0  0  0  0  0  0  0  0  0  0
   15.7195   39.6600   -8.6340 C   0  0  0  0  0  0  0  0  0  0  0  0
   15.2746   38.4709   -9.2403 C   0  0  0  0  0  0  0  0  0  0  0  0
   16.1245   37.3525   -9.3358 C   0  0  0  0  0  0  0  0  0  0  0  0
   17.4336   37.4155   -8.8242 C   0  0  0  0  0  0  0  0  0  0  0  0
   14.8621   40.7324   -8.6549 O   0  0  0  0  0  0  0  0  0  0  0  0
   15.3670   42.0181   -8.3215 C   0  0  0  0  0  0  0  0  0  0  0  0
   14.4967   43.0643   -9.0237 C   0  0  0  0  0  0  0  0  0  0  0  0
   14.4856   42.9494  -10.5624 C   0  0  0  0  0  0  0  0  0  0  0  0
   15.7734   43.4102  -11.2769 C   0  0  0  0  0  0  0  0  0  0  0  0
   16.8176   42.2985  -11.5535 C   0  0  0  0  0  0  0  0  0  0  0  0
   17.9830   42.7798  -12.4401 C   0  0  0  0  0  0  0  0  0  0  0  0
   17.8518   43.7830  -13.1350 O   0  0  0  0  0  0  0  0  0  0  0  0
   19.1281   42.0808  -12.4935 N   0  0  0  0  0  0  0  0  0  0  0  0
   19.4615   40.7977  -11.8782 C   0  0  1  0  0  0  0  0  0  0  0  0
   20.6733   40.2309  -12.6415 C   0  0  0  0  0  0  0  0  0  0  0  0
   19.8701   40.9817  -10.4099 C   0  0  0  0  0  0  0  0  0  0  0  0
   20.0738   42.1066   -9.9525 O   0  0  0  0  0  0  0  0  0  0  0  0
   19.9698   39.8658   -9.6711 N   0  0  0  0  0  0  0  0  0  0  0  0
   22.7308   42.0050   -6.0470 H   0  0  0  0  0  0  0  0  0  0  0  0
   21.9859   38.8180   -7.9874 H   0  0  0  0  0  0  0  0  0  0  0  0
   19.6460   40.7584   -7.8553 H   0  0  0  0  0  0  0  0  0  0  0  0
   18.6135   40.1136  -11.9508 H   0  0  0  0  0  0  0  0  0  0  0  0
   20.7079   44.1851    1.7546 H   0  0  0  0  0  0  0  0  0  0  0  0
   20.8597   45.1088    0.2585 H   0  0  0  0  0  0  0  0  0  0  0  0
   22.1241   43.9789    0.7349 H   0  0  0  0  0  0  0  0  0  0  0  0
   20.4548   42.0852    0.5026 H   0  0  0  0  0  0  0  0  0  0  0  0
   19.2598   43.1990   -0.0677 H   0  0  0  0  0  0  0  0  0  0  0  0
   20.4697   43.7395   -2.0470 H   0  0  0  0  0  0  0  0  0  0  0  0
   21.9179   42.9223   -1.5155 H   0  0  0  0  0  0  0  0  0  0  0  0
   20.8008   40.7204   -1.7355 H   0  0  0  0  0  0  0  0  0  0  0  0
   19.2617   41.4943   -2.0344 H   0  0  0  0  0  0  0  0  0  0  0  0
   19.7752   41.7358   -4.2033 H   0  0  0  0  0  0  0  0  0  0  0  0
   20.7390   43.4703   -5.8283 H   0  0  0  0  0  0  0  0  0  0  0  0
   19.6775   42.1045   -6.1266 H   0  0  0  0  0  0  0  0  0  0  0  0
   20.8063   42.6590   -7.3701 H   0  0  0  0  0  0  0  0  0  0  0  0
   22.7957   39.6848   -6.0047 H   0  0  0  0  0  0  0  0  0  0  0  0
   21.1195   39.4678   -5.6834 H   0  0  0  0  0  0  0  0  0  0  0  0
   22.1963   40.6480   -9.4080 H   0  0  0  0  0  0  0  0  0  0  0  0
   19.8110   37.7485   -7.8035 H   0  0  0  0  0  0  0  0  0  0  0  0
   19.2002   38.7830   -6.5374 H   0  0  0  0  0  0  0  0  0  0  0  0
   17.3636   40.5676   -7.5359 H   0  0  0  0  0  0  0  0  0  0  0  0
   14.2723   38.4270   -9.6406 H   0  0  0  0  0  0  0  0  0  0  0  0
   15.7743   36.4505   -9.8141 H   0  0  0  0  0  0  0  0  0  0  0  0
   18.0815   36.5561   -8.9095 H   0  0  0  0  0  0  0  0  0  0  0  0
   15.3254   42.1467   -7.2404 H   0  0  0  0  0  0  0  0  0  0  0  0
   16.4015   42.1695   -8.6224 H   0  0  0  0  0  0  0  0  0  0  0  0
   13.4750   42.9558   -8.6588 H   0  0  0  0  0  0  0  0  0  0  0  0
   14.8178   44.0629   -8.7272 H   0  0  0  0  0  0  0  0  0  0  0  0
   14.2138   41.9394  -10.8716 H   0  0  0  0  0  0  0  0  0  0  0  0
   13.6721   43.5827  -10.9167 H   0  0  0  0  0  0  0  0  0  0  0  0
   15.4691   43.8525  -12.2259 H   0  0  0  0  0  0  0  0  0  0  0  0
   16.2370   44.2240  -10.7177 H   0  0  0  0  0  0  0  0  0  0  0  0
   17.2188   41.9300  -10.6138 H   0  0  0  0  0  0  0  0  0  0  0  0
   16.3448   41.4451  -12.0392 H   0  0  0  0  0  0  0  0  0  0  0  0
   19.8722   42.5066  -13.0224 H   0  0  0  0  0  0  0  0  0  0  0  0
   20.9450   39.2376  -12.2825 H   0  0  0  0  0  0  0  0  0  0  0  0
   21.5537   40.8693  -12.5447 H   0  0  0  0  0  0  0  0  0  0  0  0
   20.4567   40.1398  -13.7049 H   0  0  0  0  0  0  0  0  0  0  0  0
   19.7838   38.9810  -10.1204 H   0  0  0  0  0  0  0  0  0  0  0  0
  1  2  1  0  0  0  0
  1 39  1  0  0  0  0
  1 40  1  0  0  0  0
  1 41  1  0  0  0  0
  2  3  1  0  0  0  0
  2 42  1  0  0  0  0
  2 43  1  0  0  0  0
  3  4  1  0  0  0  0
  3 44  1  0  0  0  0
  3 45  1  0  0  0  0
  4  5  1  0  0  0  0
  4 46  1  0  0  0  0
  4 47  1  0  0  0  0
  5  6  1  0  0  0  0
  5 48  1  0  0  0  0
  6  7  2  0  0  0  0
  6  8  1  0  0  0  0
  8 35  1  6  0  0  0
  8  9  1  0  0  0  0
  8 10  1  0  0  0  0
  9 49  1  0  0  0  0
  9 50  1  0  0  0  0
  9 51  1  0  0  0  0
 10 11  1  0  0  0  0
 10 52  1  0  0  0  0
 10 53  1  0  0  0  0
 11 36  1  6  0  0  0
 11 12  1  0  0  0  0
 11 13  1  0  0  0  0
 12 54  1  0  0  0  0
 13 37  1  1  0  0  0
 13 34  1  0  0  0  0
 13 14  1  0  0  0  0
 14 15  1  0  0  0  0
 14 55  1  0  0  0  0
 14 56  1  0  0  0  0
 15 20  1  0  0  0  0
 15 16  2  0  0  0  0
 16 17  1  0  0  0  0
 16 57  1  0  0  0  0
 17 18  2  0  0  0  0
 17 21  1  0  0  0  0
 18 19  1  0  0  0  0
 18 58  1  0  0  0  0
 19 20  2  0  0  0  0
 19 59  1  0  0  0  0
 20 60  1  0  0  0  0
 21 22  1  0  0  0  0
 22 23  1  0  0  0  0
 22 61  1  0  0  0  0
 22 62  1  0  0  0  0
 23 24  1  0  0  0  0
 23 63  1  0  0  0  0
 23 64  1  0  0  0  0
 24 25  1  0  0  0  0
 24 65  1  0  0  0  0
 24 66  1  0  0  0  0
 25 26  1  0  0  0  0
 25 67  1  0  0  0  0
 25 68  1  0  0  0  0
 26 27  1  0  0  0  0
 26 69  1  0  0  0  0
 26 70  1  0  0  0  0
 27 28  2  0  0  0  0
 27 29  1  0  0  0  0
 29 30  1  0  0  0  0
 29 71  1  0  0  0  0
 30 38  1  6  0  0  0
 30 31  1  0  0  0  0
 30 32  1  0  0  0  0
 31 72  1  0  0  0  0
 31 73  1  0  0  0  0
 31 74  1  0  0  0  0
 32 33  2  0  0  0  0
 32 34  1  0  0  0  0
 34 75  1  0  0  0  0
M  END
