BACE_68.smi:1
 OpenBabel09301811243D
Structure written by MMmdl.
 98101  0  0  1  0  0  0  0  0999 V2000
   20.3693   39.0352   -6.8815 C   0  0  0  0  0  0  0  0  0  0  0  0
   19.8099   39.0172   -8.3158 C   0  0  2  0  0  0  0  0  0  0  0  0
   18.9687   37.7469   -8.5417 C   0  0  0  0  0  0  0  0  0  0  0  0
   17.8501   37.8494   -9.5937 C   0  0  0  0  0  0  0  0  0  0  0  0
   16.7290   38.7796   -9.1155 C   0  0  0  0  0  0  0  0  0  0  0  0
   15.4501   38.7573   -9.9598 C   0  0  0  0  0  0  0  0  0  0  0  0
   14.3249   39.6270   -9.3658 C   0  0  0  0  0  0  0  0  0  0  0  0
   14.6310   41.1367   -9.3136 C   0  0  0  0  0  0  0  0  0  0  0  0
   15.3410   41.5742   -8.0132 C   0  0  0  0  0  0  0  0  0  0  0  0
   15.8343   42.9440   -8.0403 N   0  0  0  0  0  0  0  0  0  0  0  0
   17.1980   43.0867   -8.3324 C   0  0  0  0  0  0  0  0  0  0  0  0
   17.9728   43.8587   -7.4538 C   0  0  0  0  0  0  0  0  0  0  0  0
   19.3724   43.9874   -7.6181 C   0  0  0  0  0  0  0  0  0  0  0  0
   19.9801   43.3170   -8.7108 C   0  0  0  0  0  0  0  0  0  0  0  0
   19.2081   42.5744   -9.6315 C   0  0  0  0  0  0  0  0  0  0  0  0
   17.8164   42.4796   -9.4451 C   0  0  0  0  0  0  0  0  0  0  0  0
   19.8224   41.9443  -10.8512 C   0  0  0  0  0  0  0  0  0  0  0  0
   19.3397   42.1717  -11.9600 O   0  0  0  0  0  0  0  0  0  0  0  0
   20.8809   41.1268  -10.7284 N   0  0  0  0  0  0  0  0  0  0  0  0
   21.5081   40.5378   -9.5391 C   0  0  1  0  0  0  0  0  0  0  0  0
   20.9486   39.1101   -9.3492 C   0  0  0  0  0  0  0  0  0  0  0  0
   23.0474   40.5249   -9.7059 C   0  0  2  0  0  0  0  0  0  0  0  0
   23.6582   40.1787   -8.4807 O   0  0  0  0  0  0  0  0  0  0  0  0
   23.6685   41.8722  -10.1249 C   0  0  0  0  0  0  0  0  0  0  0  0
   25.1075   41.7111  -10.4388 N   0  3  0  0  0  0  0  0  0  0  0  0
   25.8726   42.8820  -10.9573 C   0  0  0  0  0  0  0  0  0  0  0  0
   25.3624   43.3981  -12.2876 C   0  0  0  0  0  0  0  0  0  0  0  0
   25.1692   44.2294  -11.0376 C   0  0  0  0  0  0  0  0  0  0  0  0
   27.3513   42.7676  -10.7274 C   0  0  0  0  0  0  0  0  0  0  0  0
   28.0119   43.6241   -9.8194 C   0  0  0  0  0  0  0  0  0  0  0  0
   29.4170   43.5701   -9.6386 C   0  0  0  0  0  0  0  0  0  0  0  0
   30.1468   42.6263  -10.3980 C   0  0  0  0  0  0  0  0  0  0  0  0
   29.4971   41.7519  -11.2837 C   0  0  0  0  0  0  0  0  0  0  0  0
   28.1060   41.8271  -11.4503 C   0  0  0  0  0  0  0  0  0  0  0  0
   30.1339   44.5461   -8.6827 C   0  0  0  0  0  0  0  0  0  0  0  0
   31.4063   43.9154   -8.0697 C   0  0  0  0  0  0  0  0  0  0  0  0
   30.5376   45.7999   -9.4783 C   0  0  0  0  0  0  0  0  0  0  0  0
   29.2351   44.9968   -7.5062 C   0  0  0  0  0  0  0  0  0  0  0  0
   20.1568   44.7161   -6.5491 C   0  0  0  0  0  0  0  0  0  0  0  0
   19.6605   44.8161   -5.4244 O   0  0  0  0  0  0  0  0  0  0  0  0
   21.3890   45.2357   -6.8190 N   0  0  0  0  0  0  0  0  0  0  0  0
   22.2820   45.6157   -5.7159 C   0  0  0  0  0  0  0  0  0  0  0  0
   21.8769   45.6583   -8.1337 C   0  0  0  0  0  0  0  0  0  0  0  0
   19.1718   39.8926   -8.4147 H   0  0  0  0  0  0  0  0  0  0  0  0
   21.2946   41.1252   -8.6511 H   0  0  0  0  0  0  0  0  0  0  0  0
   23.2876   39.7588  -10.4471 H   0  0  0  0  0  0  0  0  0  0  0  0
   19.5581   39.0390   -6.1518 H   0  0  0  0  0  0  0  0  0  0  0  0
   20.9770   39.9192   -6.6871 H   0  0  0  0  0  0  0  0  0  0  0  0
   20.9876   38.1600   -6.6827 H   0  0  0  0  0  0  0  0  0  0  0  0
   18.5184   37.4203   -7.6035 H   0  0  0  0  0  0  0  0  0  0  0  0
   19.6464   36.9513   -8.8458 H   0  0  0  0  0  0  0  0  0  0  0  0
   18.2478   38.1917  -10.5495 H   0  0  0  0  0  0  0  0  0  0  0  0
   17.4435   36.8517   -9.7688 H   0  0  0  0  0  0  0  0  0  0  0  0
   16.4753   38.5324   -8.0837 H   0  0  0  0  0  0  0  0  0  0  0  0
   17.1293   39.7840   -9.1258 H   0  0  0  0  0  0  0  0  0  0  0  0
   15.0936   37.7320  -10.0372 H   0  0  0  0  0  0  0  0  0  0  0  0
   15.6730   39.0906  -10.9730 H   0  0  0  0  0  0  0  0  0  0  0  0
   13.4396   39.4778   -9.9812 H   0  0  0  0  0  0  0  0  0  0  0  0
   14.0445   39.2711   -8.3724 H   0  0  0  0  0  0  0  0  0  0  0  0
   13.6948   41.6892   -9.3794 H   0  0  0  0  0  0  0  0  0  0  0  0
   15.1825   41.4221  -10.2037 H   0  0  0  0  0  0  0  0  0  0  0  0
   16.1511   40.9126   -7.7210 H   0  0  0  0  0  0  0  0  0  0  0  0
   14.6318   41.5006   -7.1886 H   0  0  0  0  0  0  0  0  0  0  0  0
   15.6109   43.3501   -7.1281 H   0  0  0  0  0  0  0  0  0  0  0  0
   17.4927   44.3181   -6.6058 H   0  0  0  0  0  0  0  0  0  0  0  0
   21.0436   43.3510   -8.8610 H   0  0  0  0  0  0  0  0  0  0  0  0
   17.2383   41.9135  -10.1563 H   0  0  0  0  0  0  0  0  0  0  0  0
   21.2128   40.7586  -11.6093 H   0  0  0  0  0  0  0  0  0  0  0  0
   21.7365   38.4199   -9.0464 H   0  0  0  0  0  0  0  0  0  0  0  0
   20.6153   38.7259  -10.3163 H   0  0  0  0  0  0  0  0  0  0  0  0
   23.8675   39.2559   -8.5243 H   0  0  0  0  0  0  0  0  0  0  0  0
   23.5348   42.6074   -9.3317 H   0  0  0  0  0  0  0  0  0  0  0  0
   23.1592   42.2525  -11.0071 H   0  0  0  0  0  0  0  0  0  0  0  0
   25.1894   40.9726  -11.1266 H   0  0  0  0  0  0  0  0  0  0  0  0
   26.0950   43.7614  -13.0070 H   0  0  0  0  0  0  0  0  0  0  0  0
   24.4703   42.9664  -12.7309 H   0  0  0  0  0  0  0  0  0  0  0  0
   24.1451   44.3500  -10.6941 H   0  0  0  0  0  0  0  0  0  0  0  0
   25.7808   45.1248  -10.9608 H   0  0  0  0  0  0  0  0  0  0  0  0
   27.4148   44.3457   -9.2808 H   0  0  0  0  0  0  0  0  0  0  0  0
   31.2212   42.5559  -10.3161 H   0  0  0  0  0  0  0  0  0  0  0  0
   30.0667   41.0261  -11.8474 H   0  0  0  0  0  0  0  0  0  0  0  0
   27.6218   41.1533  -12.1429 H   0  0  0  0  0  0  0  0  0  0  0  0
   31.1968   42.9562   -7.5956 H   0  0  0  0  0  0  0  0  0  0  0  0
   31.8426   44.5627   -7.3098 H   0  0  0  0  0  0  0  0  0  0  0  0
   32.1895   43.7501   -8.8083 H   0  0  0  0  0  0  0  0  0  0  0  0
   29.6673   46.2889   -9.9173 H   0  0  0  0  0  0  0  0  0  0  0  0
   31.2196   45.5592  -10.2934 H   0  0  0  0  0  0  0  0  0  0  0  0
   31.0342   46.5333   -8.8407 H   0  0  0  0  0  0  0  0  0  0  0  0
   28.3857   45.5977   -7.8299 H   0  0  0  0  0  0  0  0  0  0  0  0
   29.7857   45.6214   -6.8049 H   0  0  0  0  0  0  0  0  0  0  0  0
   28.8458   44.1499   -6.9402 H   0  0  0  0  0  0  0  0  0  0  0  0
   23.3276   45.5985   -6.0326 H   0  0  0  0  0  0  0  0  0  0  0  0
   22.2004   44.9196   -4.8744 H   0  0  0  0  0  0  0  0  0  0  0  0
   22.0579   46.6245   -5.3557 H   0  0  0  0  0  0  0  0  0  0  0  0
   22.4132   46.6067   -8.0513 H   0  0  0  0  0  0  0  0  0  0  0  0
   21.0732   45.8157   -8.8562 H   0  0  0  0  0  0  0  0  0  0  0  0
   22.5801   44.9280   -8.5288 H   0  0  0  0  0  0  0  0  0  0  0  0
   25.5535   41.3937   -9.5900 H   0  0  0  0  0  0  0  0  0  0  0  0
  1  2  1  0  0  0  0
  1 47  1  0  0  0  0
  1 48  1  0  0  0  0
  1 49  1  0  0  0  0
  2 44  1  6  0  0  0
  2 21  1  0  0  0  0
  2  3  1  0  0  0  0
  3  4  1  0  0  0  0
  3 50  1  0  0  0  0
  3 51  1  0  0  0  0
  4  5  1  0  0  0  0
  4 52  1  0  0  0  0
  4 53  1  0  0  0  0
  5  6  1  0  0  0  0
  5 54  1  0  0  0  0
  5 55  1  0  0  0  0
  6  7  1  0  0  0  0
  6 56  1  0  0  0  0
  6 57  1  0  0  0  0
  7  8  1  0  0  0  0
  7 58  1  0  0  0  0
  7 59  1  0  0  0  0
  8  9  1  0  0  0  0
  8 60  1  0  0  0  0
  8 61  1  0  0  0  0
  9 10  1  0  0  0  0
  9 62  1  0  0  0  0
  9 63  1  0  0  0  0
 10 11  1  0  0  0  0
 10 64  1  0  0  0  0
 11 16  1  0  0  0  0
 11 12  2  0  0  0  0
 12 13  1  0  0  0  0
 12 65  1  0  0  0  0
 13 14  2  0  0  0  0
 13 39  1  0  0  0  0
 14 15  1  0  0  0  0
 14 66  1  0  0  0  0
 15 16  2  0  0  0  0
 15 17  1  0  0  0  0
 16 67  1  0  0  0  0
 17 18  2  0  0  0  0
 17 19  1  0  0  0  0
 19 20  1  0  0  0  0
 19 68  1  0  0  0  0
 20 45  1  1  0  0  0
 20 21  1  0  0  0  0
 20 22  1  0  0  0  0
 21 69  1  0  0  0  0
 21 70  1  0  0  0  0
 22 46  1  6  0  0  0
 22 23  1  0  0  0  0
 22 24  1  0  0  0  0
 23 71  1  0  0  0  0
 24 25  1  0  0  0  0
 24 72  1  0  0  0  0
 24 73  1  0  0  0  0
 25 26  1  0  0  0  0
 25 74  1  0  0  0  0
 25 98  1  0  0  0  0
 26 28  1  0  0  0  0
 26 27  1  0  0  0  0
 26 29  1  0  0  0  0
 27 28  1  0  0  0  0
 27 75  1  0  0  0  0
 27 76  1  0  0  0  0
 28 77  1  0  0  0  0
 28 78  1  0  0  0  0
 29 34  1  0  0  0  0
 29 30  2  0  0  0  0
 30 31  1  0  0  0  0
 30 79  1  0  0  0  0
 31 32  2  0  0  0  0
 31 35  1  0  0  0  0
 32 33  1  0  0  0  0
 32 80  1  0  0  0  0
 33 34  2  0  0  0  0
 33 81  1  0  0  0  0
 34 82  1  0  0  0  0
 35 36  1  0  0  0  0
 35 37  1  0  0  0  0
 35 38  1  0  0  0  0
 36 83  1  0  0  0  0
 36 84  1  0  0  0  0
 36 85  1  0  0  0  0
 37 86  1  0  0  0  0
 37 87  1  0  0  0  0
 37 88  1  0  0  0  0
 38 89  1  0  0  0  0
 38 90  1  0  0  0  0
 38 91  1  0  0  0  0
 39 40  2  0  0  0  0
 39 41  1  0  0  0  0
 41 42  1  0  0  0  0
 41 43  1  0  0  0  0
 42 92  1  0  0  0  0
 42 93  1  0  0  0  0
 42 94  1  0  0  0  0
 43 95  1  0  0  0  0
 43 96  1  0  0  0  0
 43 97  1  0  0  0  0
M  CHG  1  25   1
M  END
