BACE_90.smi:1
 OpenBabel09301811243D
Structure written by MMmdl.
 76 79  0  0  1  0  0  0  0  0999 V2000
   21.0323   44.7165   -8.3391 C   0  0  0  0  0  0  0  0  0  0  0  0
   19.5509   44.9155   -8.7204 C   0  0  1  0  0  0  0  0  0  0  0  0
   18.5793   44.0453   -7.9057 C   0  0  0  0  0  0  0  0  0  0  0  0
   18.8634   43.7504   -6.7465 O   0  0  0  0  0  0  0  0  0  0  0  0
   17.4516   43.6336   -8.5130 N   0  0  0  0  0  0  0  0  0  0  0  0
   16.4690   42.7249   -7.9135 C   0  0  1  0  0  0  0  0  0  0  0  0
   15.0094   43.1823   -8.1467 C   0  0  0  0  0  0  0  0  0  0  0  0
   14.5404   43.3937   -9.5780 C   0  0  0  0  0  0  0  0  0  0  0  0
   13.7054   42.4397  -10.1920 C   0  0  0  0  0  0  0  0  0  0  0  0
   13.1196   42.7188  -11.4399 C   0  0  0  0  0  0  0  0  0  0  0  0
   13.3570   43.9546  -12.0695 C   0  0  0  0  0  0  0  0  0  0  0  0
   14.2104   44.9107  -11.4849 C   0  0  0  0  0  0  0  0  0  0  0  0
   14.8141   44.6101  -10.2374 C   0  0  0  0  0  0  0  0  0  0  0  0
   14.3251   46.1264  -12.1299 O   0  0  0  0  0  0  0  0  0  0  0  0
   15.5229   46.8839  -11.9795 C   0  0  0  0  0  0  0  0  0  0  0  0
   16.4959   46.5070  -13.1023 C   0  0  0  0  0  0  0  0  0  0  0  0
   17.9301   46.9769  -12.8268 C   0  0  0  0  0  0  0  0  0  0  0  0
   18.7205   45.9486  -12.0008 C   0  0  0  0  0  0  0  0  0  0  0  0
   19.8535   46.5688  -11.1641 C   0  0  0  0  0  0  0  0  0  0  0  0
   19.3237   47.1493   -9.8419 C   0  0  0  0  0  0  0  0  0  0  0  0
   18.9953   48.3364   -9.8342 O   0  0  0  0  0  0  0  0  0  0  0  0
   19.2178   46.3589   -8.7404 N   0  0  0  0  0  0  0  0  0  0  0  0
   18.7691   46.9659   -7.4753 C   0  0  0  0  0  0  0  0  0  0  0  0
   16.7943   41.2560   -8.2656 C   0  0  2  0  0  0  0  0  0  0  0  0
   16.6571   41.0808   -9.6628 O   0  0  0  0  0  0  0  0  0  0  0  0
   15.9170   40.2171   -7.5107 C   0  0  0  0  0  0  0  0  0  0  0  0
   16.6097   38.9415   -7.1777 N   0  3  0  0  0  0  0  0  0  0  0  0
   17.4386   38.2986   -8.2347 C   0  0  0  0  0  0  0  0  0  0  0  0
   16.9619   36.9104   -8.6258 C   0  0  0  0  0  0  0  0  0  0  0  0
   16.6923   38.0699   -9.5427 C   0  0  0  0  0  0  0  0  0  0  0  0
   18.9312   38.5859   -8.1483 C   0  0  0  0  0  0  0  0  0  0  0  0
   19.7768   38.3096   -9.2494 C   0  0  0  0  0  0  0  0  0  0  0  0
   21.1629   38.5575   -9.1892 C   0  0  0  0  0  0  0  0  0  0  0  0
   21.7261   39.0976   -8.0214 C   0  0  0  0  0  0  0  0  0  0  0  0
   20.9046   39.3858   -6.9160 C   0  0  0  0  0  0  0  0  0  0  0  0
   21.6610   40.1491   -5.3462 Br  0  0  0  0  0  0  0  0  0  0  0  0
   19.5218   39.1181   -6.9739 C   0  0  0  0  0  0  0  0  0  0  0  0
   19.4524   44.4997   -9.7212 H   0  0  0  0  0  0  0  0  0  0  0  0
   16.5977   42.7828   -6.8363 H   0  0  0  0  0  0  0  0  0  0  0  0
   17.8399   41.0982   -8.0083 H   0  0  0  0  0  0  0  0  0  0  0  0
   21.7028   45.2172   -9.0381 H   0  0  0  0  0  0  0  0  0  0  0  0
   21.3007   43.6611   -8.3307 H   0  0  0  0  0  0  0  0  0  0  0  0
   21.2411   45.1168   -7.3450 H   0  0  0  0  0  0  0  0  0  0  0  0
   17.3002   43.8895   -9.4765 H   0  0  0  0  0  0  0  0  0  0  0  0
   14.3226   42.5018   -7.6422 H   0  0  0  0  0  0  0  0  0  0  0  0
   14.8774   44.1436   -7.6459 H   0  0  0  0  0  0  0  0  0  0  0  0
   13.4625   41.5138   -9.6861 H   0  0  0  0  0  0  0  0  0  0  0  0
   12.4595   41.9984  -11.8960 H   0  0  0  0  0  0  0  0  0  0  0  0
   12.8771   44.1671  -13.0152 H   0  0  0  0  0  0  0  0  0  0  0  0
   15.4183   45.3320   -9.7123 H   0  0  0  0  0  0  0  0  0  0  0  0
   15.2734   47.9388  -12.0790 H   0  0  0  0  0  0  0  0  0  0  0  0
   15.9947   46.8015  -11.0034 H   0  0  0  0  0  0  0  0  0  0  0  0
   16.4921   45.4252  -13.2379 H   0  0  0  0  0  0  0  0  0  0  0  0
   16.1363   46.9469  -14.0356 H   0  0  0  0  0  0  0  0  0  0  0  0
   18.4513   47.1417  -13.7702 H   0  0  0  0  0  0  0  0  0  0  0  0
   17.9047   47.9496  -12.3325 H   0  0  0  0  0  0  0  0  0  0  0  0
   18.0413   45.4097  -11.3394 H   0  0  0  0  0  0  0  0  0  0  0  0
   19.1275   45.1903  -12.6668 H   0  0  0  0  0  0  0  0  0  0  0  0
   20.3411   47.3623  -11.7330 H   0  0  0  0  0  0  0  0  0  0  0  0
   20.6409   45.8386  -10.9833 H   0  0  0  0  0  0  0  0  0  0  0  0
   19.1066   47.9979   -7.3670 H   0  0  0  0  0  0  0  0  0  0  0  0
   19.1642   46.4336   -6.6095 H   0  0  0  0  0  0  0  0  0  0  0  0
   17.6807   46.9564   -7.4149 H   0  0  0  0  0  0  0  0  0  0  0  0
   15.7669   41.2940   -9.9107 H   0  0  0  0  0  0  0  0  0  0  0  0
   14.9993   40.0111   -8.0627 H   0  0  0  0  0  0  0  0  0  0  0  0
   15.5954   40.6337   -6.5551 H   0  0  0  0  0  0  0  0  0  0  0  0
   15.9298   38.2656   -6.8445 H   0  0  0  0  0  0  0  0  0  0  0  0
   17.7063   36.1871   -8.9527 H   0  0  0  0  0  0  0  0  0  0  0  0
   16.0781   36.4854   -8.1577 H   0  0  0  0  0  0  0  0  0  0  0  0
   15.6514   38.3704   -9.6255 H   0  0  0  0  0  0  0  0  0  0  0  0
   17.2539   38.1334  -10.4664 H   0  0  0  0  0  0  0  0  0  0  0  0
   19.3807   37.8927  -10.1620 H   0  0  0  0  0  0  0  0  0  0  0  0
   21.7937   38.3399  -10.0394 H   0  0  0  0  0  0  0  0  0  0  0  0
   22.7901   39.2969   -7.9763 H   0  0  0  0  0  0  0  0  0  0  0  0
   18.9372   39.3405   -6.0955 H   0  0  0  0  0  0  0  0  0  0  0  0
   17.2169   39.1309   -6.3957 H   0  0  0  0  0  0  0  0  0  0  0  0
  1  2  1  0  0  0  0
  1 41  1  0  0  0  0
  1 42  1  0  0  0  0
  1 43  1  0  0  0  0
  2 38  1  6  0  0  0
  2 22  1  0  0  0  0
  2  3  1  0  0  0  0
  3  4  2  0  0  0  0
  3  5  1  0  0  0  0
  5  6  1  0  0  0  0
  5 44  1  0  0  0  0
  6 39  1  1  0  0  0
  6  7  1  0  0  0  0
  6 24  1  0  0  0  0
  7  8  1  0  0  0  0
  7 45  1  0  0  0  0
  7 46  1  0  0  0  0
  8 13  1  0  0  0  0
  8  9  2  0  0  0  0
  9 10  1  0  0  0  0
  9 47  1  0  0  0  0
 10 11  2  0  0  0  0
 10 48  1  0  0  0  0
 11 12  1  0  0  0  0
 11 49  1  0  0  0  0
 12 13  2  0  0  0  0
 12 14  1  0  0  0  0
 13 50  1  0  0  0  0
 14 15  1  0  0  0  0
 15 16  1  0  0  0  0
 15 51  1  0  0  0  0
 15 52  1  0  0  0  0
 16 17  1  0  0  0  0
 16 53  1  0  0  0  0
 16 54  1  0  0  0  0
 17 18  1  0  0  0  0
 17 55  1  0  0  0  0
 17 56  1  0  0  0  0
 18 19  1  0  0  0  0
 18 57  1  0  0  0  0
 18 58  1  0  0  0  0
 19 20  1  0  0  0  0
 19 59  1  0  0  0  0
 19 60  1  0  0  0  0
 20 21  2  0  0  0  0
 20 22  1  0  0  0  0
 22 23  1  0  0  0  0
 23 61  1  0  0  0  0
 23 62  1  0  0  0  0
 23 63  1  0  0  0  0
 24 40  1  1  0  0  0
 24 25  1  0  0  0  0
 24 26  1  0  0  0  0
 25 64  1  0  0  0  0
 26 27  1  0  0  0  0
 26 65  1  0  0  0  0
 26 66  1  0  0  0  0
 27 28  1  0  0  0  0
 27 67  1  0  0  0  0
 27 76  1  0  0  0  0
 28 30  1  0  0  0  0
 28 29  1  0  0  0  0
 28 31  1  0  0  0  0
 29 30  1  0  0  0  0
 29 68  1  0  0  0  0
 29 69  1  0  0  0  0
 30 70  1  0  0  0  0
 30 71  1  0  0  0  0
 31 37  1  0  0  0  0
 31 32  2  0  0  0  0
 32 33  1  0  0  0  0
 32 72  1  0  0  0  0
 33 34  2  0  0  0  0
 33 73  1  0  0  0  0
 34 35  1  0  0  0  0
 34 74  1  0  0  0  0
 35 36  1  0  0  0  0
 35 37  2  0  0  0  0
 37 75  1  0  0  0  0
M  CHG  1  27   1
M  END
