BACE_24.smi:1
 OpenBabel09301811243D
Structure written by MMmdl.
 86 87  0  0  1  0  0  0  0  0999 V2000
   14.7764   39.7520   -6.8760 C   0  0  0  0  0  0  0  0  0  0  0  0
   14.8271   38.6966   -7.9925 C   0  0  0  0  0  0  0  0  0  0  0  0
   15.5430   39.1278   -9.1448 O   0  0  0  0  0  0  0  0  0  0  0  0
   16.9201   39.0787   -9.1450 C   0  0  0  0  0  0  0  0  0  0  0  0
   17.7175   38.7943   -8.0114 C   0  0  0  0  0  0  0  0  0  0  0  0
   19.1256   38.8524   -8.0837 C   0  0  0  0  0  0  0  0  0  0  0  0
   19.9072   38.7065   -6.7912 C   0  0  0  0  0  0  0  0  0  0  0  0
   20.0603   40.0411   -6.1809 N   0  3  0  0  0  0  0  0  0  0  0  0
   21.2569   40.2177   -5.3365 C   0  0  0  0  0  0  0  0  0  0  0  0
   21.3304   41.6304   -4.7196 C   0  0  1  0  0  0  0  0  0  0  0  0
   22.4668   41.6187   -3.8795 O   0  0  0  0  0  0  0  0  0  0  0  0
   21.4157   42.7832   -5.7667 C   0  0  2  0  0  0  0  0  0  0  0  0
   22.1714   44.0382   -5.2555 C   0  0  0  0  0  0  0  0  0  0  0  0
   22.1493   45.2819   -6.1808 C   0  0  2  0  0  0  0  0  0  0  0  0
   22.7983   44.9850   -7.5469 C   0  0  0  0  0  0  0  0  0  0  0  0
   22.8298   46.4815   -5.4762 C   0  0  0  0  0  0  0  0  0  0  0  0
   22.5766   47.8554   -6.1274 C   0  0  0  0  0  0  0  0  0  0  0  0
   21.1485   48.3895   -5.9027 C   0  0  0  0  0  0  0  0  0  0  0  0
   20.8253   49.6813   -6.6745 C   0  0  0  0  0  0  0  0  0  0  0  0
   20.8933   49.5638   -8.2133 C   0  0  0  0  0  0  0  0  0  0  0  0
   20.1081   48.3841   -8.8159 C   0  0  0  0  0  0  0  0  0  0  0  0
   18.5841   48.4784   -8.6188 C   0  0  0  0  0  0  0  0  0  0  0  0
   17.8389   47.1930   -9.0333 C   0  0  0  0  0  0  0  0  0  0  0  0
   18.0327   46.0218   -8.0428 C   0  0  0  0  0  0  0  0  0  0  0  0
   18.0605   46.2920   -6.8400 O   0  0  0  0  0  0  0  0  0  0  0  0
   18.1213   44.7435   -8.4982 N   0  0  0  0  0  0  0  0  0  0  0  0
   18.3627   44.4495   -9.9196 C   0  0  0  0  0  0  0  0  0  0  0  0
   18.0862   43.6069   -7.5461 C   0  0  1  0  0  0  0  0  0  0  0  0
   17.0594   42.5470   -7.9970 C   0  0  0  0  0  0  0  0  0  0  0  0
   19.4765   42.9805   -7.3478 C   0  0  0  0  0  0  0  0  0  0  0  0
   19.9988   42.2979   -8.2282 O   0  0  0  0  0  0  0  0  0  0  0  0
   20.0620   43.1883   -6.1577 N   0  0  0  0  0  0  0  0  0  0  0  0
   19.7649   39.1169   -9.3255 C   0  0  0  0  0  0  0  0  0  0  0  0
   18.9627   39.3582  -10.4617 C   0  0  0  0  0  0  0  0  0  0  0  0
   17.5608   39.3623  -10.3635 C   0  0  0  0  0  0  0  0  0  0  0  0
   21.2877   39.1506   -9.4628 C   0  0  0  0  0  0  0  0  0  0  0  0
   21.6610   39.5303  -10.6851 F   0  0  0  0  0  0  0  0  0  0  0  0
   21.8241   40.0009   -8.5883 F   0  0  0  0  0  0  0  0  0  0  0  0
   21.7796   37.9341   -9.2379 F   0  0  0  0  0  0  0  0  0  0  0  0
   20.4683   41.7918   -4.0677 H   0  0  0  0  0  0  0  0  0  0  0  0
   21.9685   42.4116   -6.6313 H   0  0  0  0  0  0  0  0  0  0  0  0
   21.1078   45.5475   -6.3576 H   0  0  0  0  0  0  0  0  0  0  0  0
   17.7330   43.9374   -6.5699 H   0  0  0  0  0  0  0  0  0  0  0  0
   14.0685   39.4467   -6.1039 H   0  0  0  0  0  0  0  0  0  0  0  0
   14.4601   40.7201   -7.2613 H   0  0  0  0  0  0  0  0  0  0  0  0
   15.7312   39.9005   -6.3777 H   0  0  0  0  0  0  0  0  0  0  0  0
   13.8077   38.4934   -8.3205 H   0  0  0  0  0  0  0  0  0  0  0  0
   15.2209   37.7501   -7.6306 H   0  0  0  0  0  0  0  0  0  0  0  0
   17.2662   38.5614   -7.0584 H   0  0  0  0  0  0  0  0  0  0  0  0
   20.8747   38.2389   -6.9711 H   0  0  0  0  0  0  0  0  0  0  0  0
   19.3745   38.0591   -6.0928 H   0  0  0  0  0  0  0  0  0  0  0  0
   19.2203   40.2797   -5.6608 H   0  0  0  0  0  0  0  0  0  0  0  0
   22.1481   40.0319   -5.9381 H   0  0  0  0  0  0  0  0  0  0  0  0
   21.2604   39.4676   -4.5457 H   0  0  0  0  0  0  0  0  0  0  0  0
   22.5386   42.4590   -3.4512 H   0  0  0  0  0  0  0  0  0  0  0  0
   21.7444   44.3115   -4.2916 H   0  0  0  0  0  0  0  0  0  0  0  0
   23.2139   43.7803   -5.0599 H   0  0  0  0  0  0  0  0  0  0  0  0
   22.7511   45.8442   -8.2144 H   0  0  0  0  0  0  0  0  0  0  0  0
   22.2947   44.1697   -8.0649 H   0  0  0  0  0  0  0  0  0  0  0  0
   23.8473   44.7082   -7.4337 H   0  0  0  0  0  0  0  0  0  0  0  0
   22.4998   46.5354   -4.4403 H   0  0  0  0  0  0  0  0  0  0  0  0
   23.9054   46.2994   -5.4308 H   0  0  0  0  0  0  0  0  0  0  0  0
   22.8091   47.8066   -7.1885 H   0  0  0  0  0  0  0  0  0  0  0  0
   23.2813   48.5757   -5.7098 H   0  0  0  0  0  0  0  0  0  0  0  0
   20.4071   47.6318   -6.1481 H   0  0  0  0  0  0  0  0  0  0  0  0
   21.0134   48.5754   -4.8389 H   0  0  0  0  0  0  0  0  0  0  0  0
   21.5016   50.4705   -6.3486 H   0  0  0  0  0  0  0  0  0  0  0  0
   19.8288   50.0142   -6.3849 H   0  0  0  0  0  0  0  0  0  0  0  0
   20.5397   50.4936   -8.6597 H   0  0  0  0  0  0  0  0  0  0  0  0
   21.9365   49.4726   -8.5182 H   0  0  0  0  0  0  0  0  0  0  0  0
   20.4892   47.4467   -8.4116 H   0  0  0  0  0  0  0  0  0  0  0  0
   20.3142   48.3360   -9.8851 H   0  0  0  0  0  0  0  0  0  0  0  0
   18.3468   48.7182   -7.5828 H   0  0  0  0  0  0  0  0  0  0  0  0
   18.2032   49.3161   -9.2047 H   0  0  0  0  0  0  0  0  0  0  0  0
   18.1206   46.9506  -10.0559 H   0  0  0  0  0  0  0  0  0  0  0  0
   16.7685   47.4022   -9.0623 H   0  0  0  0  0  0  0  0  0  0  0  0
   18.5758   43.4002  -10.1135 H   0  0  0  0  0  0  0  0  0  0  0  0
   19.2272   45.0010  -10.2900 H   0  0  0  0  0  0  0  0  0  0  0  0
   17.4935   44.7163  -10.5210 H   0  0  0  0  0  0  0  0  0  0  0  0
   16.9504   41.7743   -7.2400 H   0  0  0  0  0  0  0  0  0  0  0  0
   17.3309   42.0439   -8.9236 H   0  0  0  0  0  0  0  0  0  0  0  0
   16.0746   42.9932   -8.1355 H   0  0  0  0  0  0  0  0  0  0  0  0
   19.5383   43.7202   -5.4774 H   0  0  0  0  0  0  0  0  0  0  0  0
   19.4115   39.5621  -11.4223 H   0  0  0  0  0  0  0  0  0  0  0  0
   16.9655   39.5763  -11.2392 H   0  0  0  0  0  0  0  0  0  0  0  0
   20.1423   40.7082   -6.9409 H   0  0  0  0  0  0  0  0  0  0  0  0
  1  2  1  0  0  0  0
  1 44  1  0  0  0  0
  1 45  1  0  0  0  0
  1 46  1  0  0  0  0
  2  3  1  0  0  0  0
  2 47  1  0  0  0  0
  2 48  1  0  0  0  0
  3  4  1  0  0  0  0
  4 35  1  0  0  0  0
  4  5  2  0  0  0  0
  5  6  1  0  0  0  0
  5 49  1  0  0  0  0
  6  7  1  0  0  0  0
  6 33  2  0  0  0  0
  7  8  1  0  0  0  0
  7 50  1  0  0  0  0
  7 51  1  0  0  0  0
  8  9  1  0  0  0  0
  8 52  1  0  0  0  0
  8 86  1  0  0  0  0
  9 10  1  0  0  0  0
  9 53  1  0  0  0  0
  9 54  1  0  0  0  0
 10 40  1  1  0  0  0
 10 11  1  0  0  0  0
 10 12  1  0  0  0  0
 11 55  1  0  0  0  0
 12 41  1  6  0  0  0
 12 32  1  0  0  0  0
 12 13  1  0  0  0  0
 13 14  1  0  0  0  0
 13 56  1  0  0  0  0
 13 57  1  0  0  0  0
 14 42  1  6  0  0  0
 14 15  1  0  0  0  0
 14 16  1  0  0  0  0
 15 58  1  0  0  0  0
 15 59  1  0  0  0  0
 15 60  1  0  0  0  0
 16 17  1  0  0  0  0
 16 61  1  0  0  0  0
 16 62  1  0  0  0  0
 17 18  1  0  0  0  0
 17 63  1  0  0  0  0
 17 64  1  0  0  0  0
 18 19  1  0  0  0  0
 18 65  1  0  0  0  0
 18 66  1  0  0  0  0
 19 20  1  0  0  0  0
 19 67  1  0  0  0  0
 19 68  1  0  0  0  0
 20 21  1  0  0  0  0
 20 69  1  0  0  0  0
 20 70  1  0  0  0  0
 21 22  1  0  0  0  0
 21 71  1  0  0  0  0
 21 72  1  0  0  0  0
 22 23  1  0  0  0  0
 22 73  1  0  0  0  0
 22 74  1  0  0  0  0
 23 24  1  0  0  0  0
 23 75  1  0  0  0  0
 23 76  1  0  0  0  0
 24 25  2  0  0  0  0
 24 26  1  0  0  0  0
 26 27  1  0  0  0  0
 26 28  1  0  0  0  0
 27 77  1  0  0  0  0
 27 78  1  0  0  0  0
 27 79  1  0  0  0  0
 28 43  1  1  0  0  0
 28 29  1  0  0  0  0
 28 30  1  0  0  0  0
 29 80  1  0  0  0  0
 29 81  1  0  0  0  0
 29 82  1  0  0  0  0
 30 31  2  0  0  0  0
 30 32  1  0  0  0  0
 32 83  1  0  0  0  0
 33 34  1  0  0  0  0
 33 36  1  0  0  0  0
 34 35  2  0  0  0  0
 34 84  1  0  0  0  0
 35 85  1  0  0  0  0
 36 37  1  0  0  0  0
 36 38  1  0  0  0  0
 36 39  1  0  0  0  0
M  CHG  1   8   1
M  END
