BACE_133.smi:1
 OpenBabel09301811243D
Structure written by MMmdl.
 89 93  0  0  1  0  0  0  0  0999 V2000
   18.9136   43.7012  -11.5577 C   0  0  0  0  0  0  0  0  0  0  0  0
   17.6662   43.7344  -12.4327 C   0  0  0  0  0  0  0  0  0  0  0  0
   17.6880   43.3032  -13.5849 O   0  0  0  0  0  0  0  0  0  0  0  0
   16.4010   44.3250  -11.8101 C   0  0  0  0  0  0  0  0  0  0  0  0
   16.7184   44.9377  -10.5663 O   0  0  0  0  0  0  0  0  0  0  0  0
   17.3403   44.1737   -9.6005 C   0  0  0  0  0  0  0  0  0  0  0  0
   17.2883   42.7558   -9.5445 C   0  0  0  0  0  0  0  0  0  0  0  0
   17.9478   42.0558   -8.5096 C   0  0  0  0  0  0  0  0  0  0  0  0
   18.6622   42.7711   -7.5308 C   0  0  0  0  0  0  0  0  0  0  0  0
   18.7483   44.1775   -7.5871 C   0  0  0  0  0  0  0  0  0  0  0  0
   18.0685   44.8704   -8.6115 C   0  0  0  0  0  0  0  0  0  0  0  0
   19.5371   44.9211   -6.5517 C   0  0  0  0  0  0  0  0  0  0  0  0
   19.0157   45.8085   -5.8764 O   0  0  0  0  0  0  0  0  0  0  0  0
   20.8213   44.5290   -6.4497 N   0  0  0  0  0  0  0  0  0  0  0  0
   21.8099   44.9133   -5.4324 C   0  0  1  0  0  0  0  0  0  0  0  0
   22.9757   43.8822   -5.4166 C   0  0  0  0  0  0  0  0  0  0  0  0
   22.5823   42.4165   -5.5830 C   0  0  0  0  0  0  0  0  0  0  0  0
   22.6096   41.8139   -6.8610 C   0  0  0  0  0  0  0  0  0  0  0  0
   22.2432   40.4607   -7.0300 C   0  0  0  0  0  0  0  0  0  0  0  0
   22.2415   39.8464   -8.4239 C   0  0  0  0  0  0  0  0  0  0  0  0
   20.9878   40.2125   -9.2455 C   0  0  0  0  0  0  0  0  0  0  0  0
   19.7667   39.3120   -8.9701 C   0  0  0  0  0  0  0  0  0  0  0  0
   18.4226   39.9065   -9.4347 C   0  0  0  0  0  0  0  0  0  0  0  0
   17.8610   40.6910   -8.3857 O   0  0  0  0  0  0  0  0  0  0  0  0
   21.8788   39.6964   -5.9008 C   0  0  0  0  0  0  0  0  0  0  0  0
   21.8638   40.2872   -4.6215 C   0  0  0  0  0  0  0  0  0  0  0  0
   22.2104   41.6437   -4.4622 C   0  0  0  0  0  0  0  0  0  0  0  0
   22.3773   46.3580   -5.6104 C   0  0  2  0  0  0  0  0  0  0  0  0
   22.5375   46.6281   -6.9899 O   0  0  0  0  0  0  0  0  0  0  0  0
   23.6937   46.6697   -4.8608 C   0  0  0  0  0  0  0  0  0  0  0  0
   23.4287   47.2784   -3.5528 N   0  0  0  0  0  0  0  0  0  0  0  0
   23.8480   48.6662   -3.3041 C   0  0  0  0  0  0  0  0  0  0  0  0
   22.7767   49.7304   -3.2995 C   0  0  0  0  0  0  0  0  0  0  0  0
   23.7491   49.6430   -4.4514 C   0  0  0  0  0  0  0  0  0  0  0  0
   25.0103   48.8320   -2.3355 C   0  0  0  0  0  0  0  0  0  0  0  0
   26.3452   48.5650   -2.7181 C   0  0  0  0  0  0  0  0  0  0  0  0
   27.3953   48.7563   -1.7820 C   0  0  0  0  0  0  0  0  0  0  0  0
   27.0274   49.2202   -0.4949 C   0  0  0  0  0  0  0  0  0  0  0  0
   25.6703   49.4677   -0.2102 C   0  0  0  0  0  0  0  0  0  0  0  0
   24.6790   49.2838   -1.1055 N   0  0  0  0  0  0  0  0  0  0  0  0
   28.8799   48.4846   -2.1154 C   0  0  0  0  0  0  0  0  0  0  0  0
   29.2348   49.1226   -3.4783 C   0  0  0  0  0  0  0  0  0  0  0  0
   29.8562   49.0664   -1.0632 C   0  0  0  0  0  0  0  0  0  0  0  0
   29.1294   46.9603   -2.1854 C   0  0  0  0  0  0  0  0  0  0  0  0
   21.3200   44.8312   -4.4599 H   0  0  0  0  0  0  0  0  0  0  0  0
   21.6109   47.0593   -5.2759 H   0  0  0  0  0  0  0  0  0  0  0  0
   18.7329   43.1066  -10.6621 H   0  0  0  0  0  0  0  0  0  0  0  0
   19.1907   44.7107  -11.2538 H   0  0  0  0  0  0  0  0  0  0  0  0
   19.7515   43.2622  -12.0998 H   0  0  0  0  0  0  0  0  0  0  0  0
   15.6736   43.5253  -11.6658 H   0  0  0  0  0  0  0  0  0  0  0  0
   15.9796   45.0584  -12.4987 H   0  0  0  0  0  0  0  0  0  0  0  0
   16.7292   42.1843  -10.2698 H   0  0  0  0  0  0  0  0  0  0  0  0
   19.1474   42.2261   -6.7336 H   0  0  0  0  0  0  0  0  0  0  0  0
   18.1148   45.9494   -8.6559 H   0  0  0  0  0  0  0  0  0  0  0  0
   21.1238   43.8125   -7.0940 H   0  0  0  0  0  0  0  0  0  0  0  0
   23.6802   44.1188   -6.2155 H   0  0  0  0  0  0  0  0  0  0  0  0
   23.5448   43.9869   -4.4916 H   0  0  0  0  0  0  0  0  0  0  0  0
   22.8973   42.3991   -7.7227 H   0  0  0  0  0  0  0  0  0  0  0  0
   22.3615   38.7638   -8.3641 H   0  0  0  0  0  0  0  0  0  0  0  0
   23.1267   40.2122   -8.9461 H   0  0  0  0  0  0  0  0  0  0  0  0
   20.7477   41.2647   -9.0975 H   0  0  0  0  0  0  0  0  0  0  0  0
   21.2284   40.1187  -10.3053 H   0  0  0  0  0  0  0  0  0  0  0  0
   19.9279   38.3602   -9.4779 H   0  0  0  0  0  0  0  0  0  0  0  0
   19.6932   39.0689   -7.9098 H   0  0  0  0  0  0  0  0  0  0  0  0
   18.5316   40.4420  -10.3792 H   0  0  0  0  0  0  0  0  0  0  0  0
   17.7223   39.0926   -9.6249 H   0  0  0  0  0  0  0  0  0  0  0  0
   21.6032   38.6575   -6.0098 H   0  0  0  0  0  0  0  0  0  0  0  0
   21.5815   39.6992   -3.7605 H   0  0  0  0  0  0  0  0  0  0  0  0
   22.1921   42.0863   -3.4768 H   0  0  0  0  0  0  0  0  0  0  0  0
   22.8928   47.4985   -7.0856 H   0  0  0  0  0  0  0  0  0  0  0  0
   24.3367   47.3047   -5.4707 H   0  0  0  0  0  0  0  0  0  0  0  0
   24.2292   45.7337   -4.7004 H   0  0  0  0  0  0  0  0  0  0  0  0
   23.7104   46.6698   -2.7909 H   0  0  0  0  0  0  0  0  0  0  0  0
   21.7497   49.4135   -3.4807 H   0  0  0  0  0  0  0  0  0  0  0  0
   22.8928   50.5605   -2.6027 H   0  0  0  0  0  0  0  0  0  0  0  0
   24.5154   50.4147   -4.5248 H   0  0  0  0  0  0  0  0  0  0  0  0
   23.3722   49.2677   -5.4028 H   0  0  0  0  0  0  0  0  0  0  0  0
   26.5304   48.2216   -3.7240 H   0  0  0  0  0  0  0  0  0  0  0  0
   27.7650   49.3918    0.2749 H   0  0  0  0  0  0  0  0  0  0  0  0
   25.3737   49.8248    0.7650 H   0  0  0  0  0  0  0  0  0  0  0  0
   30.2848   48.9685   -3.7308 H   0  0  0  0  0  0  0  0  0  0  0  0
   29.0592   50.1992   -3.4704 H   0  0  0  0  0  0  0  0  0  0  0  0
   28.6515   48.7040   -4.2986 H   0  0  0  0  0  0  0  0  0  0  0  0
   30.8943   48.8593   -1.3270 H   0  0  0  0  0  0  0  0  0  0  0  0
   29.6954   48.6352   -0.0741 H   0  0  0  0  0  0  0  0  0  0  0  0
   29.7674   50.1504   -0.9788 H   0  0  0  0  0  0  0  0  0  0  0  0
   30.1759   46.7355   -2.3957 H   0  0  0  0  0  0  0  0  0  0  0  0
   28.5427   46.4778   -2.9673 H   0  0  0  0  0  0  0  0  0  0  0  0
   28.8776   46.4732   -1.2424 H   0  0  0  0  0  0  0  0  0  0  0  0
  1  2  1  0  0  0  0
  1 47  1  0  0  0  0
  1 48  1  0  0  0  0
  1 49  1  0  0  0  0
  2  3  2  0  0  0  0
  2  4  1  0  0  0  0
  4  5  1  0  0  0  0
  4 50  1  0  0  0  0
  4 51  1  0  0  0  0
  5  6  1  0  0  0  0
  6 11  1  0  0  0  0
  6  7  2  0  0  0  0
  7  8  1  0  0  0  0
  7 52  1  0  0  0  0
  8 24  1  0  0  0  0
  8  9  2  0  0  0  0
  9 10  1  0  0  0  0
  9 53  1  0  0  0  0
 10 11  2  0  0  0  0
 10 12  1  0  0  0  0
 11 54  1  0  0  0  0
 12 13  2  0  0  0  0
 12 14  1  0  0  0  0
 14 15  1  0  0  0  0
 14 55  1  0  0  0  0
 15 45  1  1  0  0  0
 15 16  1  0  0  0  0
 15 28  1  0  0  0  0
 16 17  1  0  0  0  0
 16 56  1  0  0  0  0
 16 57  1  0  0  0  0
 17 27  1  0  0  0  0
 17 18  2  0  0  0  0
 18 19  1  0  0  0  0
 18 58  1  0  0  0  0
 19 20  1  0  0  0  0
 19 25  2  0  0  0  0
 20 21  1  0  0  0  0
 20 59  1  0  0  0  0
 20 60  1  0  0  0  0
 21 22  1  0  0  0  0
 21 61  1  0  0  0  0
 21 62  1  0  0  0  0
 22 23  1  0  0  0  0
 22 63  1  0  0  0  0
 22 64  1  0  0  0  0
 23 24  1  0  0  0  0
 23 65  1  0  0  0  0
 23 66  1  0  0  0  0
 25 26  1  0  0  0  0
 25 67  1  0  0  0  0
 26 27  2  0  0  0  0
 26 68  1  0  0  0  0
 27 69  1  0  0  0  0
 28 46  1  1  0  0  0
 28 29  1  0  0  0  0
 28 30  1  0  0  0  0
 29 70  1  0  0  0  0
 30 31  1  0  0  0  0
 30 71  1  0  0  0  0
 30 72  1  0  0  0  0
 31 32  1  0  0  0  0
 31 73  1  0  0  0  0
 32 34  1  0  0  0  0
 32 33  1  0  0  0  0
 32 35  1  0  0  0  0
 33 34  1  0  0  0  0
 33 74  1  0  0  0  0
 33 75  1  0  0  0  0
 34 76  1  0  0  0  0
 34 77  1  0  0  0  0
 35 40  1  0  0  0  0
 35 36  2  0  0  0  0
 36 37  1  0  0  0  0
 36 78  1  0  0  0  0
 37 38  2  0  0  0  0
 37 41  1  0  0  0  0
 38 39  1  0  0  0  0
 38 79  1  0  0  0  0
 39 40  2  0  0  0  0
 39 80  1  0  0  0  0
 41 42  1  0  0  0  0
 41 43  1  0  0  0  0
 41 44  1  0  0  0  0
 42 81  1  0  0  0  0
 42 82  1  0  0  0  0
 42 83  1  0  0  0  0
 43 84  1  0  0  0  0
 43 85  1  0  0  0  0
 43 86  1  0  0  0  0
 44 87  1  0  0  0  0
 44 88  1  0  0  0  0
 44 89  1  0  0  0  0
M  END
