BACE_139.smi:1
 OpenBabel09301811243D
Structure written by MMmdl.
 78 81  0  0  1  0  0  0  0  0999 V2000
   20.3962   38.9499  -11.5353 C   0  0  0  0  0  0  0  0  0  0  0  0
   19.2748   39.9186  -11.1615 C   0  0  0  0  0  0  0  0  0  0  0  0
   19.6865   41.3713  -11.4265 C   0  0  0  0  0  0  0  0  0  0  0  0
   18.8249   39.6879   -9.7263 C   0  0  0  0  0  0  0  0  0  0  0  0
   19.7232   39.8433   -8.6505 C   0  0  0  0  0  0  0  0  0  0  0  0
   19.2667   39.5874   -7.3444 C   0  0  0  0  0  0  0  0  0  0  0  0
   17.9963   39.2297   -7.0692 N   0  0  0  0  0  0  0  0  0  0  0  0
   17.1261   39.1082   -8.0907 C   0  0  0  0  0  0  0  0  0  0  0  0
   15.6838   38.8025   -7.7011 C   0  0  0  0  0  0  0  0  0  0  0  0
   14.8594   39.9435   -7.2371 N   0  3  0  0  0  0  0  0  0  0  0  0
   15.3720   41.3152   -7.4258 C   0  0  0  0  0  0  0  0  0  0  0  0
   15.3712   41.8213   -8.8925 C   0  0  1  0  0  0  0  0  0  0  0  0
   14.0602   42.2520   -9.2396 O   0  0  0  0  0  0  0  0  0  0  0  0
   16.4642   42.9049   -9.2183 C   0  0  2  0  0  0  0  0  0  0  0  0
   17.4438   43.3092   -8.0748 C   0  0  0  0  0  0  0  0  0  0  0  0
   18.3013   44.5594   -8.2720 C   0  0  0  0  0  0  0  0  0  0  0  0
   18.2900   45.5482   -7.2668 C   0  0  0  0  0  0  0  0  0  0  0  0
   19.1188   46.6794   -7.3557 C   0  0  0  0  0  0  0  0  0  0  0  0
   19.9870   46.8219   -8.4517 C   0  0  0  0  0  0  0  0  0  0  0  0
   20.0119   45.8480   -9.4668 C   0  0  0  0  0  0  0  0  0  0  0  0
   19.1607   44.7196   -9.3837 C   0  0  0  0  0  0  0  0  0  0  0  0
   20.9286   45.9988  -10.4750 O   0  0  0  0  0  0  0  0  0  0  0  0
   20.4040   46.2453  -11.7714 C   0  0  0  0  0  0  0  0  0  0  0  0
   19.7822   47.6563  -11.8650 C   0  0  0  0  0  0  0  0  0  0  0  0
   19.6688   48.2158  -13.2956 C   0  0  0  0  0  0  0  0  0  0  0  0
   18.5372   47.6455  -14.1692 C   0  0  0  0  0  0  0  0  0  0  0  0
   17.2689   48.2008  -13.8181 O   0  0  0  0  0  0  0  0  0  0  0  0
   16.3164   47.3892  -13.2411 C   0  0  0  0  0  0  0  0  0  0  0  0
   14.9621   47.7541  -13.3841 C   0  0  0  0  0  0  0  0  0  0  0  0
   13.9356   46.9384  -12.8655 C   0  0  0  0  0  0  0  0  0  0  0  0
   14.2610   45.7493  -12.1836 C   0  0  0  0  0  0  0  0  0  0  0  0
   15.6124   45.3946  -12.0039 C   0  0  0  0  0  0  0  0  0  0  0  0
   16.6261   46.2114  -12.5299 C   0  0  0  0  0  0  0  0  0  0  0  0
   16.0119   44.1200  -11.3298 C   0  0  0  0  0  0  0  0  0  0  0  0
   16.4605   43.2166  -12.0398 O   0  0  0  0  0  0  0  0  0  0  0  0
   15.9324   44.0590   -9.9765 N   0  0  0  0  0  0  0  0  0  0  0  0
   15.2389   45.0747   -9.1775 C   0  0  0  0  0  0  0  0  0  0  0  0
   17.5009   39.2956   -9.4400 C   0  0  0  0  0  0  0  0  0  0  0  0
   15.5453   40.9819   -9.5614 H   0  0  0  0  0  0  0  0  0  0  0  0
   17.1498   42.3824   -9.8858 H   0  0  0  0  0  0  0  0  0  0  0  0
   20.0598   37.9309  -11.3482 H   0  0  0  0  0  0  0  0  0  0  0  0
   21.3011   39.1134  -10.9472 H   0  0  0  0  0  0  0  0  0  0  0  0
   20.6676   39.0322  -12.5878 H   0  0  0  0  0  0  0  0  0  0  0  0
   18.4283   39.6967  -11.8097 H   0  0  0  0  0  0  0  0  0  0  0  0
   18.8462   42.0442  -11.2795 H   0  0  0  0  0  0  0  0  0  0  0  0
   20.0253   41.5020  -12.4540 H   0  0  0  0  0  0  0  0  0  0  0  0
   20.4965   41.6900  -10.7680 H   0  0  0  0  0  0  0  0  0  0  0  0
   20.7501   40.1363   -8.8182 H   0  0  0  0  0  0  0  0  0  0  0  0
   19.9317   39.6828   -6.4992 H   0  0  0  0  0  0  0  0  0  0  0  0
   15.1752   38.2729   -8.5078 H   0  0  0  0  0  0  0  0  0  0  0  0
   15.6990   38.1501   -6.8405 H   0  0  0  0  0  0  0  0  0  0  0  0
   13.9257   39.8620   -7.6150 H   0  0  0  0  0  0  0  0  0  0  0  0
   14.7398   41.9708   -6.8403 H   0  0  0  0  0  0  0  0  0  0  0  0
   16.3474   41.3409   -6.9470 H   0  0  0  0  0  0  0  0  0  0  0  0
   13.4140   41.6065   -8.9698 H   0  0  0  0  0  0  0  0  0  0  0  0
   16.8721   43.4687   -7.1609 H   0  0  0  0  0  0  0  0  0  0  0  0
   18.1169   42.4807   -7.8529 H   0  0  0  0  0  0  0  0  0  0  0  0
   17.6599   45.4262   -6.4050 H   0  0  0  0  0  0  0  0  0  0  0  0
   19.1070   47.4239   -6.5735 H   0  0  0  0  0  0  0  0  0  0  0  0
   20.6475   47.6745   -8.5085 H   0  0  0  0  0  0  0  0  0  0  0  0
   19.2044   43.9598  -10.1486 H   0  0  0  0  0  0  0  0  0  0  0  0
   21.2607   46.1846  -12.4398 H   0  0  0  0  0  0  0  0  0  0  0  0
   19.7193   45.4558  -12.0761 H   0  0  0  0  0  0  0  0  0  0  0  0
   18.8168   47.6885  -11.3606 H   0  0  0  0  0  0  0  0  0  0  0  0
   20.4276   48.3350  -11.3067 H   0  0  0  0  0  0  0  0  0  0  0  0
   19.5409   49.2965  -13.2411 H   0  0  0  0  0  0  0  0  0  0  0  0
   20.6204   48.0594  -13.8049 H   0  0  0  0  0  0  0  0  0  0  0  0
   18.7188   47.9637  -15.1969 H   0  0  0  0  0  0  0  0  0  0  0  0
   18.5660   46.5565  -14.2189 H   0  0  0  0  0  0  0  0  0  0  0  0
   14.7107   48.6529  -13.9262 H   0  0  0  0  0  0  0  0  0  0  0  0
   12.9012   47.2127  -13.0180 H   0  0  0  0  0  0  0  0  0  0  0  0
   13.4746   45.1075  -11.8108 H   0  0  0  0  0  0  0  0  0  0  0  0
   17.6459   45.9038  -12.3875 H   0  0  0  0  0  0  0  0  0  0  0  0
   14.1720   45.0075   -9.3866 H   0  0  0  0  0  0  0  0  0  0  0  0
   15.6007   46.0810   -9.3985 H   0  0  0  0  0  0  0  0  0  0  0  0
   15.3473   44.9199   -8.1040 H   0  0  0  0  0  0  0  0  0  0  0  0
   16.7840   39.1632  -10.2372 H   0  0  0  0  0  0  0  0  0  0  0  0
   14.7747   39.8281   -6.2306 H   0  0  0  0  0  0  0  0  0  0  0  0
  1  2  1  0  0  0  0
  1 41  1  0  0  0  0
  1 42  1  0  0  0  0
  1 43  1  0  0  0  0
  2  3  1  0  0  0  0
  2  4  1  0  0  0  0
  2 44  1  0  0  0  0
  3 45  1  0  0  0  0
  3 46  1  0  0  0  0
  3 47  1  0  0  0  0
  4 38  1  0  0  0  0
  4  5  2  0  0  0  0
  5  6  1  0  0  0  0
  5 48  1  0  0  0  0
  6  7  2  0  0  0  0
  6 49  1  0  0  0  0
  7  8  1  0  0  0  0
  8  9  1  0  0  0  0
  8 38  2  0  0  0  0
  9 10  1  0  0  0  0
  9 50  1  0  0  0  0
  9 51  1  0  0  0  0
 10 11  1  0  0  0  0
 10 52  1  0  0  0  0
 10 78  1  0  0  0  0
 11 12  1  0  0  0  0
 11 53  1  0  0  0  0
 11 54  1  0  0  0  0
 12 39  1  6  0  0  0
 12 13  1  0  0  0  0
 12 14  1  0  0  0  0
 13 55  1  0  0  0  0
 14 40  1  6  0  0  0
 14 36  1  0  0  0  0
 14 15  1  0  0  0  0
 15 16  1  0  0  0  0
 15 56  1  0  0  0  0
 15 57  1  0  0  0  0
 16 21  1  0  0  0  0
 16 17  2  0  0  0  0
 17 18  1  0  0  0  0
 17 58  1  0  0  0  0
 18 19  2  0  0  0  0
 18 59  1  0  0  0  0
 19 20  1  0  0  0  0
 19 60  1  0  0  0  0
 20 21  2  0  0  0  0
 20 22  1  0  0  0  0
 21 61  1  0  0  0  0
 22 23  1  0  0  0  0
 23 24  1  0  0  0  0
 23 62  1  0  0  0  0
 23 63  1  0  0  0  0
 24 25  1  0  0  0  0
 24 64  1  0  0  0  0
 24 65  1  0  0  0  0
 25 26  1  0  0  0  0
 25 66  1  0  0  0  0
 25 67  1  0  0  0  0
 26 27  1  0  0  0  0
 26 68  1  0  0  0  0
 26 69  1  0  0  0  0
 27 28  1  0  0  0  0
 28 33  1  0  0  0  0
 28 29  2  0  0  0  0
 29 30  1  0  0  0  0
 29 70  1  0  0  0  0
 30 31  2  0  0  0  0
 30 71  1  0  0  0  0
 31 32  1  0  0  0  0
 31 72  1  0  0  0  0
 32 33  2  0  0  0  0
 32 34  1  0  0  0  0
 33 73  1  0  0  0  0
 34 35  2  0  0  0  0
 34 36  1  0  0  0  0
 36 37  1  0  0  0  0
 37 74  1  0  0  0  0
 37 75  1  0  0  0  0
 37 76  1  0  0  0  0
 38 77  1  0  0  0  0
M  CHG  1  10   1
M  END
