BACE_22.smi:1
 OpenBabel09301811243D
Structure written by MMmdl.
 79 80  0  0  1  0  0  0  0  0999 V2000
   14.1821   38.8640   -7.8412 C   0  0  0  0  0  0  0  0  0  0  0  0
   15.4106   38.6716   -8.7433 C   0  0  2  0  0  0  0  0  0  0  0  0
   16.5869   38.3108   -7.9202 N   0  3  0  0  0  0  0  0  0  0  0  0
   17.1310   39.3724   -7.0404 C   0  0  0  0  0  0  0  0  0  0  0  0
   18.6838   39.4231   -7.0646 C   0  0  1  0  0  0  0  0  0  0  0  0
   19.1850   38.1500   -7.4146 O   0  0  0  0  0  0  0  0  0  0  0  0
   19.3620   40.5099   -7.9533 C   0  0  2  0  0  0  0  0  0  0  0  0
   20.8957   40.5017   -7.6888 C   0  0  0  0  0  0  0  0  0  0  0  0
   21.7792   41.4965   -8.4726 C   0  0  2  0  0  0  0  0  0  0  0  0
   21.7818   41.2052   -9.9840 C   0  0  0  0  0  0  0  0  0  0  0  0
   23.2249   41.4922   -7.9185 C   0  0  0  0  0  0  0  0  0  0  0  0
   23.8451   42.8959   -7.8036 C   0  0  0  0  0  0  0  0  0  0  0  0
   23.3520   43.6635   -6.5605 C   0  0  0  0  0  0  0  0  0  0  0  0
   23.9762   45.0637   -6.3943 C   0  0  0  0  0  0  0  0  0  0  0  0
   23.6785   46.0549   -7.5379 C   0  0  0  0  0  0  0  0  0  0  0  0
   22.1863   46.3200   -7.8059 C   0  0  0  0  0  0  0  0  0  0  0  0
   21.4691   47.0838   -6.6766 C   0  0  0  0  0  0  0  0  0  0  0  0
   19.9800   47.3510   -6.9708 C   0  0  0  0  0  0  0  0  0  0  0  0
   19.1154   46.0886   -6.7982 C   0  0  0  0  0  0  0  0  0  0  0  0
   18.8598   45.7536   -5.6402 O   0  0  0  0  0  0  0  0  0  0  0  0
   18.6838   45.3897   -7.8819 N   0  0  0  0  0  0  0  0  0  0  0  0
   18.8616   45.9064   -9.2485 C   0  0  0  0  0  0  0  0  0  0  0  0
   17.9514   44.1088   -7.7238 C   0  0  1  0  0  0  0  0  0  0  0  0
   16.4753   44.2787   -8.1212 C   0  0  0  0  0  0  0  0  0  0  0  0
   18.6206   42.8939   -8.4019 C   0  0  0  0  0  0  0  0  0  0  0  0
   18.9646   42.9274   -9.5819 O   0  0  0  0  0  0  0  0  0  0  0  0
   18.7839   41.8130   -7.6254 N   0  0  0  0  0  0  0  0  0  0  0  0
   15.7179   39.8490   -9.6727 C   0  0  0  0  0  0  0  0  0  0  0  0
   16.9031   39.8290  -10.4401 C   0  0  0  0  0  0  0  0  0  0  0  0
   17.2591   40.9306  -11.2399 C   0  0  0  0  0  0  0  0  0  0  0  0
   16.4266   42.0622  -11.2860 C   0  0  0  0  0  0  0  0  0  0  0  0
   15.2098   42.0693  -10.5791 C   0  0  0  0  0  0  0  0  0  0  0  0
   14.0380   43.5635  -10.7131 Br  0  0  0  0  0  0  0  0  0  0  0  0
   14.8599   40.9690   -9.7751 C   0  0  0  0  0  0  0  0  0  0  0  0
   15.2113   37.8119   -9.3842 H   0  0  0  0  0  0  0  0  0  0  0  0
   19.0077   39.6097   -6.0399 H   0  0  0  0  0  0  0  0  0  0  0  0
   19.1735   40.2831   -9.0011 H   0  0  0  0  0  0  0  0  0  0  0  0
   21.3716   42.4952   -8.3247 H   0  0  0  0  0  0  0  0  0  0  0  0
   17.9131   43.8400   -6.6669 H   0  0  0  0  0  0  0  0  0  0  0  0
   14.0604   38.0096   -7.1748 H   0  0  0  0  0  0  0  0  0  0  0  0
   13.2707   38.9504   -8.4343 H   0  0  0  0  0  0  0  0  0  0  0  0
   14.2647   39.7497   -7.2081 H   0  0  0  0  0  0  0  0  0  0  0  0
   17.3488   38.0203   -8.5161 H   0  0  0  0  0  0  0  0  0  0  0  0
   16.7909   39.1134   -6.0398 H   0  0  0  0  0  0  0  0  0  0  0  0
   16.6935   40.3498   -7.2432 H   0  0  0  0  0  0  0  0  0  0  0  0
   19.2644   37.6313   -6.6269 H   0  0  0  0  0  0  0  0  0  0  0  0
   21.0438   40.6834   -6.6240 H   0  0  0  0  0  0  0  0  0  0  0  0
   21.2923   39.5030   -7.8682 H   0  0  0  0  0  0  0  0  0  0  0  0
   22.3968   41.9297  -10.5175 H   0  0  0  0  0  0  0  0  0  0  0  0
   20.7820   41.2543  -10.4129 H   0  0  0  0  0  0  0  0  0  0  0  0
   22.1793   40.2116  -10.1973 H   0  0  0  0  0  0  0  0  0  0  0  0
   23.2599   41.0193   -6.9369 H   0  0  0  0  0  0  0  0  0  0  0  0
   23.8565   40.8651   -8.5512 H   0  0  0  0  0  0  0  0  0  0  0  0
   23.6417   43.4544   -8.7186 H   0  0  0  0  0  0  0  0  0  0  0  0
   24.9283   42.7982   -7.7452 H   0  0  0  0  0  0  0  0  0  0  0  0
   22.2661   43.7404   -6.5690 H   0  0  0  0  0  0  0  0  0  0  0  0
   23.5923   43.0779   -5.6708 H   0  0  0  0  0  0  0  0  0  0  0  0
   25.0579   44.9584   -6.2913 H   0  0  0  0  0  0  0  0  0  0  0  0
   23.6373   45.4881   -5.4478 H   0  0  0  0  0  0  0  0  0  0  0  0
   24.1761   47.0017   -7.3267 H   0  0  0  0  0  0  0  0  0  0  0  0
   24.1398   45.6897   -8.4549 H   0  0  0  0  0  0  0  0  0  0  0  0
   21.6792   45.3782   -8.0112 H   0  0  0  0  0  0  0  0  0  0  0  0
   22.1036   46.9019   -8.7245 H   0  0  0  0  0  0  0  0  0  0  0  0
   21.5614   46.5346   -5.7392 H   0  0  0  0  0  0  0  0  0  0  0  0
   21.9737   48.0359   -6.5120 H   0  0  0  0  0  0  0  0  0  0  0  0
   19.8650   47.8367   -7.9378 H   0  0  0  0  0  0  0  0  0  0  0  0
   19.6132   48.0796   -6.2493 H   0  0  0  0  0  0  0  0  0  0  0  0
   18.3501   45.3029   -9.9966 H   0  0  0  0  0  0  0  0  0  0  0  0
   19.9146   45.9381   -9.5270 H   0  0  0  0  0  0  0  0  0  0  0  0
   18.4418   46.9075   -9.3478 H   0  0  0  0  0  0  0  0  0  0  0  0
   15.9184   43.3575   -7.9447 H   0  0  0  0  0  0  0  0  0  0  0  0
   16.3639   44.5359   -9.1734 H   0  0  0  0  0  0  0  0  0  0  0  0
   15.9971   45.0633   -7.5356 H   0  0  0  0  0  0  0  0  0  0  0  0
   18.4594   41.8973   -6.6668 H   0  0  0  0  0  0  0  0  0  0  0  0
   17.5658   38.9757  -10.4055 H   0  0  0  0  0  0  0  0  0  0  0  0
   18.1843   40.9126  -11.7969 H   0  0  0  0  0  0  0  0  0  0  0  0
   16.7198   42.9171  -11.8761 H   0  0  0  0  0  0  0  0  0  0  0  0
   13.9242   41.0096   -9.2396 H   0  0  0  0  0  0  0  0  0  0  0  0
   16.3429   37.5205   -7.3203 H   0  0  0  0  0  0  0  0  0  0  0  0
  1  2  1  0  0  0  0
  1 40  1  0  0  0  0
  1 41  1  0  0  0  0
  1 42  1  0  0  0  0
  2 35  1  6  0  0  0
  2  3  1  0  0  0  0
  2 28  1  0  0  0  0
  3  4  1  0  0  0  0
  3 43  1  0  0  0  0
  3 79  1  0  0  0  0
  4  5  1  0  0  0  0
  4 44  1  0  0  0  0
  4 45  1  0  0  0  0
  5 36  1  1  0  0  0
  5  6  1  0  0  0  0
  5  7  1  0  0  0  0
  6 46  1  0  0  0  0
  7 37  1  6  0  0  0
  7 27  1  0  0  0  0
  7  8  1  0  0  0  0
  8  9  1  0  0  0  0
  8 47  1  0  0  0  0
  8 48  1  0  0  0  0
  9 38  1  1  0  0  0
  9 10  1  0  0  0  0
  9 11  1  0  0  0  0
 10 49  1  0  0  0  0
 10 50  1  0  0  0  0
 10 51  1  0  0  0  0
 11 12  1  0  0  0  0
 11 52  1  0  0  0  0
 11 53  1  0  0  0  0
 12 13  1  0  0  0  0
 12 54  1  0  0  0  0
 12 55  1  0  0  0  0
 13 14  1  0  0  0  0
 13 56  1  0  0  0  0
 13 57  1  0  0  0  0
 14 15  1  0  0  0  0
 14 58  1  0  0  0  0
 14 59  1  0  0  0  0
 15 16  1  0  0  0  0
 15 60  1  0  0  0  0
 15 61  1  0  0  0  0
 16 17  1  0  0  0  0
 16 62  1  0  0  0  0
 16 63  1  0  0  0  0
 17 18  1  0  0  0  0
 17 64  1  0  0  0  0
 17 65  1  0  0  0  0
 18 19  1  0  0  0  0
 18 66  1  0  0  0  0
 18 67  1  0  0  0  0
 19 20  2  0  0  0  0
 19 21  1  0  0  0  0
 21 22  1  0  0  0  0
 21 23  1  0  0  0  0
 22 68  1  0  0  0  0
 22 69  1  0  0  0  0
 22 70  1  0  0  0  0
 23 39  1  1  0  0  0
 23 24  1  0  0  0  0
 23 25  1  0  0  0  0
 24 71  1  0  0  0  0
 24 72  1  0  0  0  0
 24 73  1  0  0  0  0
 25 26  2  0  0  0  0
 25 27  1  0  0  0  0
 27 74  1  0  0  0  0
 28 34  1  0  0  0  0
 28 29  2  0  0  0  0
 29 30  1  0  0  0  0
 29 75  1  0  0  0  0
 30 31  2  0  0  0  0
 30 76  1  0  0  0  0
 31 32  1  0  0  0  0
 31 77  1  0  0  0  0
 32 33  1  0  0  0  0
 32 34  2  0  0  0  0
 34 78  1  0  0  0  0
M  CHG  1   3   1
M  END
