BACE_94.smi:1
 OpenBabel09301811243D
Structure written by MMmdl.
 77 79  0  0  1  0  0  0  0  0999 V2000
   15.7700   39.9121   -9.4918 C   0  0  0  0  0  0  0  0  0  0  0  0
   16.6806   38.6853   -9.6563 C   0  0  0  0  0  0  0  0  0  0  0  0
   15.9065   37.3874   -9.3958 C   0  0  0  0  0  0  0  0  0  0  0  0
   17.9252   38.7473   -8.7811 C   0  0  0  0  0  0  0  0  0  0  0  0
   17.8111   38.9335   -7.3853 C   0  0  0  0  0  0  0  0  0  0  0  0
   18.9598   38.9509   -6.5751 C   0  0  0  0  0  0  0  0  0  0  0  0
   20.2326   38.7879   -7.1463 C   0  0  0  0  0  0  0  0  0  0  0  0
   20.3590   38.5828   -8.5352 C   0  0  0  0  0  0  0  0  0  0  0  0
   21.7324   38.3404   -9.1328 C   0  0  0  0  0  0  0  0  0  0  0  0
   22.4600   39.5981   -9.3826 N   0  3  0  0  0  0  0  0  0  0  0  0
   22.0575   40.3052  -10.6147 C   0  0  0  0  0  0  0  0  0  0  0  0
   22.5953   41.7517  -10.6532 C   0  0  1  0  0  0  0  0  0  0  0  0
   22.4601   42.2333  -11.9706 O   0  0  0  0  0  0  0  0  0  0  0  0
   21.9410   42.7553   -9.6566 C   0  0  2  0  0  0  0  0  0  0  0  0
   22.7891   42.9050   -8.3560 C   0  0  0  0  0  0  0  0  0  0  0  0
   21.9965   43.1167   -7.0662 C   0  0  0  0  0  0  0  0  0  0  0  0
   22.1386   42.2151   -5.9891 C   0  0  0  0  0  0  0  0  0  0  0  0
   21.3759   42.3884   -4.8218 C   0  0  0  0  0  0  0  0  0  0  0  0
   20.4601   43.4521   -4.7301 C   0  0  0  0  0  0  0  0  0  0  0  0
   20.2903   44.3580   -5.7968 C   0  0  0  0  0  0  0  0  0  0  0  0
   21.0931   44.1957   -6.9549 C   0  0  0  0  0  0  0  0  0  0  0  0
   19.3435   45.3509   -5.6399 O   0  0  0  0  0  0  0  0  0  0  0  0
   18.7593   45.9334   -6.8017 C   0  0  0  0  0  0  0  0  0  0  0  0
   17.7528   44.9727   -7.4604 C   0  0  0  0  0  0  0  0  0  0  0  0
   17.3831   45.4119   -8.8834 C   0  0  0  0  0  0  0  0  0  0  0  0
   16.3810   44.4932   -9.6032 C   0  0  0  0  0  0  0  0  0  0  0  0
   16.6082   44.5169  -11.4425 S   0  0  0  0  0  0  0  0  0  0  0  0
   15.3174   44.1502  -12.0399 O   0  0  0  0  0  0  0  0  0  0  0  0
   17.2172   45.8032  -11.8111 O   0  0  0  0  0  0  0  0  0  0  0  0
   17.7822   43.1244  -11.8701 C   0  0  0  0  0  0  0  0  0  0  0  0
   19.2541   43.1681  -11.3495 C   0  0  1  0  0  0  0  0  0  0  0  0
   19.9576   44.5223  -11.5921 C   0  0  0  0  0  0  0  0  0  0  0  0
   19.3917   42.5687   -9.9272 C   0  0  0  0  0  0  0  0  0  0  0  0
   18.3951   42.1520   -9.3531 O   0  0  0  0  0  0  0  0  0  0  0  0
   20.5694   42.3787   -9.3121 N   0  0  0  0  0  0  0  0  0  0  0  0
   19.2062   38.5670   -9.3505 C   0  0  0  0  0  0  0  0  0  0  0  0
   23.6748   41.7315  -10.4850 H   0  0  0  0  0  0  0  0  0  0  0  0
   21.9320   43.7564  -10.0779 H   0  0  0  0  0  0  0  0  0  0  0  0
   19.7781   42.4480  -11.9779 H   0  0  0  0  0  0  0  0  0  0  0  0
   16.2921   40.8349   -9.7316 H   0  0  0  0  0  0  0  0  0  0  0  0
   15.3888   40.0044   -8.4755 H   0  0  0  0  0  0  0  0  0  0  0  0
   14.9058   39.8478  -10.1539 H   0  0  0  0  0  0  0  0  0  0  0  0
   17.0115   38.6762  -10.6947 H   0  0  0  0  0  0  0  0  0  0  0  0
   16.5327   36.5141   -9.5741 H   0  0  0  0  0  0  0  0  0  0  0  0
   15.0310   37.3079  -10.0397 H   0  0  0  0  0  0  0  0  0  0  0  0
   15.5679   37.3498   -8.3599 H   0  0  0  0  0  0  0  0  0  0  0  0
   16.8401   39.0432   -6.9247 H   0  0  0  0  0  0  0  0  0  0  0  0
   18.8583   39.0944   -5.5089 H   0  0  0  0  0  0  0  0  0  0  0  0
   21.1049   38.8004   -6.5085 H   0  0  0  0  0  0  0  0  0  0  0  0
   22.3171   37.7429   -8.4413 H   0  0  0  0  0  0  0  0  0  0  0  0
   21.6516   37.7501  -10.0409 H   0  0  0  0  0  0  0  0  0  0  0  0
   22.3192   40.1988   -8.5814 H   0  0  0  0  0  0  0  0  0  0  0  0
   22.4572   39.7501  -11.4598 H   0  0  0  0  0  0  0  0  0  0  0  0
   20.9772   40.2844  -10.7452 H   0  0  0  0  0  0  0  0  0  0  0  0
   23.0270   41.7051  -12.5315 H   0  0  0  0  0  0  0  0  0  0  0  0
   23.4153   42.0247   -8.2132 H   0  0  0  0  0  0  0  0  0  0  0  0
   23.4898   43.7329   -8.4666 H   0  0  0  0  0  0  0  0  0  0  0  0
   22.8300   41.3878   -6.0523 H   0  0  0  0  0  0  0  0  0  0  0  0
   21.4809   41.6969   -3.9987 H   0  0  0  0  0  0  0  0  0  0  0  0
   19.8672   43.5643   -3.8356 H   0  0  0  0  0  0  0  0  0  0  0  0
   21.0111   44.8683   -7.7928 H   0  0  0  0  0  0  0  0  0  0  0  0
   18.2287   46.8331   -6.4878 H   0  0  0  0  0  0  0  0  0  0  0  0
   19.5130   46.2837   -7.5042 H   0  0  0  0  0  0  0  0  0  0  0  0
   18.1701   43.9677   -7.4975 H   0  0  0  0  0  0  0  0  0  0  0  0
   16.8595   44.9024   -6.8406 H   0  0  0  0  0  0  0  0  0  0  0  0
   16.9961   46.4310   -8.8745 H   0  0  0  0  0  0  0  0  0  0  0  0
   18.3016   45.4585   -9.4548 H   0  0  0  0  0  0  0  0  0  0  0  0
   16.4100   43.4632   -9.2577 H   0  0  0  0  0  0  0  0  0  0  0  0
   15.3690   44.8390   -9.3985 H   0  0  0  0  0  0  0  0  0  0  0  0
   17.2944   42.1928  -11.5792 H   0  0  0  0  0  0  0  0  0  0  0  0
   17.8159   43.1003  -12.9560 H   0  0  0  0  0  0  0  0  0  0  0  0
   20.9864   44.3762  -11.9158 H   0  0  0  0  0  0  0  0  0  0  0  0
   19.9835   45.1597  -10.7120 H   0  0  0  0  0  0  0  0  0  0  0  0
   19.4885   45.0760  -12.4061 H   0  0  0  0  0  0  0  0  0  0  0  0
   20.4661   41.9914   -8.3831 H   0  0  0  0  0  0  0  0  0  0  0  0
   19.2983   38.3952  -10.4134 H   0  0  0  0  0  0  0  0  0  0  0  0
   23.4431   39.3611   -9.4617 H   0  0  0  0  0  0  0  0  0  0  0  0
  1  2  1  0  0  0  0
  1 40  1  0  0  0  0
  1 41  1  0  0  0  0
  1 42  1  0  0  0  0
  2  3  1  0  0  0  0
  2  4  1  0  0  0  0
  2 43  1  0  0  0  0
  3 44  1  0  0  0  0
  3 45  1  0  0  0  0
  3 46  1  0  0  0  0
  4 36  1  0  0  0  0
  4  5  2  0  0  0  0
  5  6  1  0  0  0  0
  5 47  1  0  0  0  0
  6  7  2  0  0  0  0
  6 48  1  0  0  0  0
  7  8  1  0  0  0  0
  7 49  1  0  0  0  0
  8  9  1  0  0  0  0
  8 36  2  0  0  0  0
  9 10  1  0  0  0  0
  9 50  1  0  0  0  0
  9 51  1  0  0  0  0
 10 11  1  0  0  0  0
 10 52  1  0  0  0  0
 10 77  1  0  0  0  0
 11 12  1  0  0  0  0
 11 53  1  0  0  0  0
 11 54  1  0  0  0  0
 12 37  1  1  0  0  0
 12 13  1  0  0  0  0
 12 14  1  0  0  0  0
 13 55  1  0  0  0  0
 14 38  1  6  0  0  0
 14 35  1  0  0  0  0
 14 15  1  0  0  0  0
 15 16  1  0  0  0  0
 15 56  1  0  0  0  0
 15 57  1  0  0  0  0
 16 21  1  0  0  0  0
 16 17  2  0  0  0  0
 17 18  1  0  0  0  0
 17 58  1  0  0  0  0
 18 19  2  0  0  0  0
 18 59  1  0  0  0  0
 19 20  1  0  0  0  0
 19 60  1  0  0  0  0
 20 21  2  0  0  0  0
 20 22  1  0  0  0  0
 21 61  1  0  0  0  0
 22 23  1  0  0  0  0
 23 24  1  0  0  0  0
 23 62  1  0  0  0  0
 23 63  1  0  0  0  0
 24 25  1  0  0  0  0
 24 64  1  0  0  0  0
 24 65  1  0  0  0  0
 25 26  1  0  0  0  0
 25 66  1  0  0  0  0
 25 67  1  0  0  0  0
 26 27  1  0  0  0  0
 26 68  1  0  0  0  0
 26 69  1  0  0  0  0
 27 28  2  0  0  0  0
 27 29  2  0  0  0  0
 27 30  1  0  0  0  0
 30 31  1  0  0  0  0
 30 70  1  0  0  0  0
 30 71  1  0  0  0  0
 31 39  1  6  0  0  0
 31 32  1  0  0  0  0
 31 33  1  0  0  0  0
 32 72  1  0  0  0  0
 32 73  1  0  0  0  0
 32 74  1  0  0  0  0
 33 34  2  0  0  0  0
 33 35  1  0  0  0  0
 35 75  1  0  0  0  0
 36 76  1  0  0  0  0
M  CHG  1  10   1
M  END
