BACE_19.smi:1
 OpenBabel09301811243D
Structure written by MMmdl.
 76 77  0  0  1  0  0  0  0  0999 V2000
   32.6235   42.5795  -12.8200 C   0  0  0  0  0  0  0  0  0  0  0  0
   31.2395   42.1395  -13.3097 C   0  0  0  0  0  0  0  0  0  0  0  0
   30.2092   42.0631  -12.1743 C   0  0  0  0  0  0  0  0  0  0  0  0
   28.8185   41.6348  -12.6702 C   0  0  0  0  0  0  0  0  0  0  0  0
   27.8445   41.6424  -11.5862 N   0  0  0  0  0  0  0  0  0  0  0  0
   26.9365   42.6059  -11.3675 C   0  0  0  0  0  0  0  0  0  0  0  0
   26.8163   43.5988  -12.0857 O   0  0  0  0  0  0  0  0  0  0  0  0
   26.0425   42.4312  -10.1312 C   0  0  2  0  0  0  0  0  0  0  0  0
   25.6720   40.9496   -9.9489 C   0  0  0  0  0  0  0  0  0  0  0  0
   24.7719   43.3131  -10.2003 C   0  0  0  0  0  0  0  0  0  0  0  0
   23.5913   42.7277  -11.0134 C   0  0  2  0  0  0  0  0  0  0  0  0
   23.4892   43.4217  -12.2411 O   0  0  0  0  0  0  0  0  0  0  0  0
   22.2499   42.7743  -10.2398 C   0  0  2  0  0  0  0  0  0  0  0  0
   22.2410   42.0195   -8.8846 C   0  0  0  0  0  0  0  0  0  0  0  0
   22.4349   40.4783   -8.8547 C   0  0  2  0  0  0  0  0  0  0  0  0
   21.5435   39.6739   -9.8231 C   0  0  0  0  0  0  0  0  0  0  0  0
   22.3644   39.9221   -7.4072 C   0  0  0  0  0  0  0  0  0  0  0  0
   21.1307   40.2933   -6.5476 C   0  0  0  0  0  0  0  0  0  0  0  0
   19.7895   39.9073   -7.1490 C   0  0  0  0  0  0  0  0  0  0  0  0
   19.3883   38.5564   -7.1743 C   0  0  0  0  0  0  0  0  0  0  0  0
   18.1472   38.2007   -7.7346 C   0  0  0  0  0  0  0  0  0  0  0  0
   17.3086   39.1901   -8.2830 C   0  0  0  0  0  0  0  0  0  0  0  0
   17.7097   40.5439   -8.2852 C   0  0  0  0  0  0  0  0  0  0  0  0
   16.8221   41.6358   -8.8695 C   0  0  0  0  0  0  0  0  0  0  0  0
   16.3642   41.3561  -10.6480 S   0  0  0  0  0  0  0  0  0  0  0  0
   15.6299   40.0847  -10.7333 O   0  0  0  0  0  0  0  0  0  0  0  0
   15.7052   42.5771  -11.1330 O   0  0  0  0  0  0  0  0  0  0  0  0
   17.9877   41.0968  -11.5343 C   0  0  0  0  0  0  0  0  0  0  0  0
   18.8268   42.3346  -11.9671 C   0  0  1  0  0  0  0  0  0  0  0  0
   18.0481   43.5327  -12.5383 C   0  0  0  0  0  0  0  0  0  0  0  0
   19.8294   42.7849  -10.8959 C   0  0  0  0  0  0  0  0  0  0  0  0
   19.4544   43.4508   -9.9320 O   0  0  0  0  0  0  0  0  0  0  0  0
   21.1122   42.4366  -11.0981 N   0  0  0  0  0  0  0  0  0  0  0  0
   18.9394   40.8958   -7.6907 C   0  0  0  0  0  0  0  0  0  0  0  0
   26.6163   42.7304   -9.2526 H   0  0  0  0  0  0  0  0  0  0  0  0
   23.7983   41.6831  -11.2470 H   0  0  0  0  0  0  0  0  0  0  0  0
   22.1139   43.8241   -9.9726 H   0  0  0  0  0  0  0  0  0  0  0  0
   23.4573   40.2851   -9.1802 H   0  0  0  0  0  0  0  0  0  0  0  0
   19.4337   41.9730  -12.7995 H   0  0  0  0  0  0  0  0  0  0  0  0
   33.3315   42.6266  -13.6477 H   0  0  0  0  0  0  0  0  0  0  0  0
   33.0208   41.8824  -12.0819 H   0  0  0  0  0  0  0  0  0  0  0  0
   32.5825   43.5676  -12.3607 H   0  0  0  0  0  0  0  0  0  0  0  0
   30.8912   42.8365  -14.0729 H   0  0  0  0  0  0  0  0  0  0  0  0
   31.3228   41.1663  -13.7951 H   0  0  0  0  0  0  0  0  0  0  0  0
   30.5570   41.3607  -11.4157 H   0  0  0  0  0  0  0  0  0  0  0  0
   30.1405   43.0356  -11.6848 H   0  0  0  0  0  0  0  0  0  0  0  0
   28.4838   42.2810  -13.4837 H   0  0  0  0  0  0  0  0  0  0  0  0
   28.8635   40.6235  -13.0752 H   0  0  0  0  0  0  0  0  0  0  0  0
   27.8815   40.8711  -10.9353 H   0  0  0  0  0  0  0  0  0  0  0  0
   26.5609   40.3186   -9.9111 H   0  0  0  0  0  0  0  0  0  0  0  0
   25.0425   40.5900  -10.7638 H   0  0  0  0  0  0  0  0  0  0  0  0
   25.1251   40.7969   -9.0181 H   0  0  0  0  0  0  0  0  0  0  0  0
   24.4310   43.5213   -9.1850 H   0  0  0  0  0  0  0  0  0  0  0  0
   25.0487   44.2817  -10.6186 H   0  0  0  0  0  0  0  0  0  0  0  0
   23.4589   42.7873  -12.9411 H   0  0  0  0  0  0  0  0  0  0  0  0
   23.0120   42.4623   -8.2527 H   0  0  0  0  0  0  0  0  0  0  0  0
   21.3079   42.2728   -8.3906 H   0  0  0  0  0  0  0  0  0  0  0  0
   20.4925   39.9286   -9.7230 H   0  0  0  0  0  0  0  0  0  0  0  0
   21.6410   38.6018   -9.6518 H   0  0  0  0  0  0  0  0  0  0  0  0
   21.8164   39.8471  -10.8625 H   0  0  0  0  0  0  0  0  0  0  0  0
   22.4567   38.8360   -7.4407 H   0  0  0  0  0  0  0  0  0  0  0  0
   23.2499   40.2638   -6.8699 H   0  0  0  0  0  0  0  0  0  0  0  0
   21.2157   39.8006   -5.5784 H   0  0  0  0  0  0  0  0  0  0  0  0
   21.1341   41.3603   -6.3244 H   0  0  0  0  0  0  0  0  0  0  0  0
   20.0298   37.7919   -6.7611 H   0  0  0  0  0  0  0  0  0  0  0  0
   17.8364   37.1664   -7.7433 H   0  0  0  0  0  0  0  0  0  0  0  0
   16.3551   38.8963   -8.6938 H   0  0  0  0  0  0  0  0  0  0  0  0
   15.8987   41.6885   -8.2930 H   0  0  0  0  0  0  0  0  0  0  0  0
   17.2984   42.6116   -8.7899 H   0  0  0  0  0  0  0  0  0  0  0  0
   18.5843   40.4024  -10.9445 H   0  0  0  0  0  0  0  0  0  0  0  0
   17.7306   40.5490  -12.4410 H   0  0  0  0  0  0  0  0  0  0  0  0
   18.7205   44.2136  -13.0611 H   0  0  0  0  0  0  0  0  0  0  0  0
   17.5520   44.1153  -11.7622 H   0  0  0  0  0  0  0  0  0  0  0  0
   17.2964   43.2070  -13.2576 H   0  0  0  0  0  0  0  0  0  0  0  0
   21.3249   41.8970  -11.9248 H   0  0  0  0  0  0  0  0  0  0  0  0
   19.2348   41.9334   -7.6591 H   0  0  0  0  0  0  0  0  0  0  0  0
  1  2  1  0  0  0  0
  1 40  1  0  0  0  0
  1 41  1  0  0  0  0
  1 42  1  0  0  0  0
  2  3  1  0  0  0  0
  2 43  1  0  0  0  0
  2 44  1  0  0  0  0
  3  4  1  0  0  0  0
  3 45  1  0  0  0  0
  3 46  1  0  0  0  0
  4  5  1  0  0  0  0
  4 47  1  0  0  0  0
  4 48  1  0  0  0  0
  5  6  1  0  0  0  0
  5 49  1  0  0  0  0
  6  7  2  0  0  0  0
  6  8  1  0  0  0  0
  8 35  1  1  0  0  0
  8  9  1  0  0  0  0
  8 10  1  0  0  0  0
  9 50  1  0  0  0  0
  9 51  1  0  0  0  0
  9 52  1  0  0  0  0
 10 11  1  0  0  0  0
 10 53  1  0  0  0  0
 10 54  1  0  0  0  0
 11 36  1  6  0  0  0
 11 12  1  0  0  0  0
 11 13  1  0  0  0  0
 12 55  1  0  0  0  0
 13 37  1  1  0  0  0
 13 33  1  0  0  0  0
 13 14  1  0  0  0  0
 14 15  1  0  0  0  0
 14 56  1  0  0  0  0
 14 57  1  0  0  0  0
 15 38  1  6  0  0  0
 15 16  1  0  0  0  0
 15 17  1  0  0  0  0
 16 58  1  0  0  0  0
 16 59  1  0  0  0  0
 16 60  1  0  0  0  0
 17 18  1  0  0  0  0
 17 61  1  0  0  0  0
 17 62  1  0  0  0  0
 18 19  1  0  0  0  0
 18 63  1  0  0  0  0
 18 64  1  0  0  0  0
 19 34  1  0  0  0  0
 19 20  2  0  0  0  0
 20 21  1  0  0  0  0
 20 65  1  0  0  0  0
 21 22  2  0  0  0  0
 21 66  1  0  0  0  0
 22 23  1  0  0  0  0
 22 67  1  0  0  0  0
 23 24  1  0  0  0  0
 23 34  2  0  0  0  0
 24 25  1  0  0  0  0
 24 68  1  0  0  0  0
 24 69  1  0  0  0  0
 25 26  2  0  0  0  0
 25 27  2  0  0  0  0
 25 28  1  0  0  0  0
 28 29  1  0  0  0  0
 28 70  1  0  0  0  0
 28 71  1  0  0  0  0
 29 39  1  6  0  0  0
 29 30  1  0  0  0  0
 29 31  1  0  0  0  0
 30 72  1  0  0  0  0
 30 73  1  0  0  0  0
 30 74  1  0  0  0  0
 31 32  2  0  0  0  0
 31 33  1  0  0  0  0
 33 75  1  0  0  0  0
 34 76  1  0  0  0  0
M  END
