BACE_97.smi:1
 OpenBabel09301811243D
Structure written by MMmdl.
 80 83  0  0  1  0  0  0  0  0999 V2000
   20.1711   46.9549  -11.7232 C   0  0  0  0  0  0  0  0  0  0  0  0
   20.2341   45.4733  -11.4196 C   0  0  0  0  0  0  0  0  0  0  0  0
   19.1225   44.6399  -11.6365 C   0  0  0  0  0  0  0  0  0  0  0  0
   19.2320   43.2700  -11.3176 C   0  0  0  0  0  0  0  0  0  0  0  0
   20.4673   42.7910  -10.8251 C   0  0  0  0  0  0  0  0  0  0  0  0
   21.5297   43.7063  -10.6628 C   0  0  0  0  0  0  0  0  0  0  0  0
   22.7839   43.3390  -10.1710 N   0  0  0  0  0  0  0  0  0  0  0  0
   23.3703   42.0568  -10.5427 C   0  0  0  0  0  0  0  0  0  0  0  0
   23.8595   41.2879   -9.3030 C   0  0  0  0  0  0  0  0  0  0  0  0
   22.7304   40.6040   -8.5119 C   0  0  0  0  0  0  0  0  0  0  0  0
   22.2123   39.2961   -9.1446 C   0  0  0  0  0  0  0  0  0  0  0  0
   20.7853   38.9787   -8.7340 C   0  0  0  0  0  0  0  0  0  0  0  0
   20.4944   38.5512   -7.4236 C   0  0  0  0  0  0  0  0  0  0  0  0
   19.1598   38.3256   -7.0285 C   0  0  0  0  0  0  0  0  0  0  0  0
   18.1126   38.4875   -7.9513 C   0  0  0  0  0  0  0  0  0  0  0  0
   18.3956   38.8982   -9.2685 C   0  0  0  0  0  0  0  0  0  0  0  0
   17.2686   39.0943  -10.2681 C   0  0  0  0  0  0  0  0  0  0  0  0
   16.7395   40.5431  -10.3564 C   0  0  2  0  0  0  0  0  0  0  0  0
   17.8611   41.4790  -10.4992 N   0  0  0  0  0  0  0  0  0  0  0  0
   18.0416   42.3761  -11.4855 C   0  0  0  0  0  0  0  0  0  0  0  0
   17.2596   42.5503  -12.4190 O   0  0  0  0  0  0  0  0  0  0  0  0
   15.7731   40.8796   -9.1690 C   0  0  2  0  0  0  0  0  0  0  0  0
   14.4605   40.6417   -9.6393 O   0  0  0  0  0  0  0  0  0  0  0  0
   15.8034   42.3252   -8.6154 C   0  0  0  0  0  0  0  0  0  0  0  0
   16.8973   42.5549   -7.6397 N   0  3  0  0  0  0  0  0  0  0  0  0
   17.7378   43.7323   -7.9533 C   0  0  0  0  0  0  0  0  0  0  0  0
   18.8678   43.9921   -6.9700 C   0  0  0  0  0  0  0  0  0  0  0  0
   19.6603   42.9520   -6.4291 C   0  0  0  0  0  0  0  0  0  0  0  0
   20.6601   43.2790   -5.4767 C   0  0  0  0  0  0  0  0  0  0  0  0
   20.8968   44.6468   -5.2429 C   0  0  0  0  0  0  0  0  0  0  0  0
   20.0987   45.6117   -5.8781 C   0  0  0  0  0  0  0  0  0  0  0  0
   19.0766   45.2954   -6.6957 N   0  0  0  0  0  0  0  0  0  0  0  0
   21.4503   42.2315   -4.6700 C   0  0  0  0  0  0  0  0  0  0  0  0
   22.9659   42.4423   -4.8670 C   0  0  0  0  0  0  0  0  0  0  0  0
   21.1117   40.7925   -5.0815 C   0  0  0  0  0  0  0  0  0  0  0  0
   21.1111   42.3735   -3.1716 C   0  0  0  0  0  0  0  0  0  0  0  0
   19.7330   39.1281   -9.6585 C   0  0  0  0  0  0  0  0  0  0  0  0
   21.4091   45.0208  -10.9394 N   0  0  0  0  0  0  0  0  0  0  0  0
   16.1581   40.5922  -11.2780 H   0  0  0  0  0  0  0  0  0  0  0  0
   15.9316   40.1922   -8.3393 H   0  0  0  0  0  0  0  0  0  0  0  0
   19.2168   47.2258  -12.1767 H   0  0  0  0  0  0  0  0  0  0  0  0
   20.9665   47.2367  -12.4147 H   0  0  0  0  0  0  0  0  0  0  0  0
   20.2925   47.5326  -10.8068 H   0  0  0  0  0  0  0  0  0  0  0  0
   18.1986   45.0455  -12.0215 H   0  0  0  0  0  0  0  0  0  0  0  0
   20.5967   41.7497  -10.5698 H   0  0  0  0  0  0  0  0  0  0  0  0
   23.4352   44.1057  -10.0924 H   0  0  0  0  0  0  0  0  0  0  0  0
   22.7023   41.4444  -11.1497 H   0  0  0  0  0  0  0  0  0  0  0  0
   24.2262   42.2741  -11.1842 H   0  0  0  0  0  0  0  0  0  0  0  0
   24.6012   40.5510   -9.6032 H   0  0  0  0  0  0  0  0  0  0  0  0
   24.3959   41.9739   -8.6453 H   0  0  0  0  0  0  0  0  0  0  0  0
   23.0785   40.3831   -7.5019 H   0  0  0  0  0  0  0  0  0  0  0  0
   21.9116   41.3178   -8.3986 H   0  0  0  0  0  0  0  0  0  0  0  0
   22.2621   39.3537  -10.2305 H   0  0  0  0  0  0  0  0  0  0  0  0
   22.8577   38.4687   -8.8513 H   0  0  0  0  0  0  0  0  0  0  0  0
   21.2939   38.4032   -6.7126 H   0  0  0  0  0  0  0  0  0  0  0  0
   18.9372   38.0040   -6.0215 H   0  0  0  0  0  0  0  0  0  0  0  0
   17.0979   38.2863   -7.6355 H   0  0  0  0  0  0  0  0  0  0  0  0
   17.6607   38.8047  -11.2399 H   0  0  0  0  0  0  0  0  0  0  0  0
   16.4516   38.4013  -10.0553 H   0  0  0  0  0  0  0  0  0  0  0  0
   18.6043   41.3937   -9.8190 H   0  0  0  0  0  0  0  0  0  0  0  0
   13.8551   40.5504   -8.9100 H   0  0  0  0  0  0  0  0  0  0  0  0
   15.8264   43.0484   -9.4337 H   0  0  0  0  0  0  0  0  0  0  0  0
   14.8797   42.5240   -8.0693 H   0  0  0  0  0  0  0  0  0  0  0  0
   16.4691   42.7003   -6.7293 H   0  0  0  0  0  0  0  0  0  0  0  0
   18.1860   43.6289   -8.9358 H   0  0  0  0  0  0  0  0  0  0  0  0
   17.0907   44.6115   -8.0027 H   0  0  0  0  0  0  0  0  0  0  0  0
   19.4455   41.9249   -6.6846 H   0  0  0  0  0  0  0  0  0  0  0  0
   21.6659   44.9556   -4.5510 H   0  0  0  0  0  0  0  0  0  0  0  0
   20.2569   46.6619   -5.6893 H   0  0  0  0  0  0  0  0  0  0  0  0
   23.5406   41.6748   -4.3448 H   0  0  0  0  0  0  0  0  0  0  0  0
   23.3062   43.4033   -4.4809 H   0  0  0  0  0  0  0  0  0  0  0  0
   23.2418   42.3990   -5.9233 H   0  0  0  0  0  0  0  0  0  0  0  0
   21.3131   40.6540   -6.1383 H   0  0  0  0  0  0  0  0  0  0  0  0
   20.0618   40.5527   -4.8998 H   0  0  0  0  0  0  0  0  0  0  0  0
   21.7075   40.0637   -4.5308 H   0  0  0  0  0  0  0  0  0  0  0  0
   21.6344   41.6254   -2.5744 H   0  0  0  0  0  0  0  0  0  0  0  0
   20.0421   42.2471   -2.9971 H   0  0  0  0  0  0  0  0  0  0  0  0
   21.3947   43.3486   -2.7775 H   0  0  0  0  0  0  0  0  0  0  0  0
   19.9476   39.4384  -10.6711 H   0  0  0  0  0  0  0  0  0  0  0  0
   17.4800   41.7312   -7.5664 H   0  0  0  0  0  0  0  0  0  0  0  0
  1  2  1  0  0  0  0
  1 41  1  0  0  0  0
  1 42  1  0  0  0  0
  1 43  1  0  0  0  0
  2 38  1  0  0  0  0
  2  3  2  0  0  0  0
  3  4  1  0  0  0  0
  3 44  1  0  0  0  0
  4 20  1  0  0  0  0
  4  5  2  0  0  0  0
  5  6  1  0  0  0  0
  5 45  1  0  0  0  0
  6  7  1  0  0  0  0
  6 38  2  0  0  0  0
  7  8  1  0  0  0  0
  7 46  1  0  0  0  0
  8  9  1  0  0  0  0
  8 47  1  0  0  0  0
  8 48  1  0  0  0  0
  9 10  1  0  0  0  0
  9 49  1  0  0  0  0
  9 50  1  0  0  0  0
 10 11  1  0  0  0  0
 10 51  1  0  0  0  0
 10 52  1  0  0  0  0
 11 12  1  0  0  0  0
 11 53  1  0  0  0  0
 11 54  1  0  0  0  0
 12 37  1  0  0  0  0
 12 13  2  0  0  0  0
 13 14  1  0  0  0  0
 13 55  1  0  0  0  0
 14 15  2  0  0  0  0
 14 56  1  0  0  0  0
 15 16  1  0  0  0  0
 15 57  1  0  0  0  0
 16 17  1  0  0  0  0
 16 37  2  0  0  0  0
 17 18  1  0  0  0  0
 17 58  1  0  0  0  0
 17 59  1  0  0  0  0
 18 39  1  6  0  0  0
 18 19  1  0  0  0  0
 18 22  1  0  0  0  0
 19 20  1  0  0  0  0
 19 60  1  0  0  0  0
 20 21  2  0  0  0  0
 22 40  1  1  0  0  0
 22 23  1  0  0  0  0
 22 24  1  0  0  0  0
 23 61  1  0  0  0  0
 24 25  1  0  0  0  0
 24 62  1  0  0  0  0
 24 63  1  0  0  0  0
 25 26  1  0  0  0  0
 25 64  1  0  0  0  0
 25 80  1  0  0  0  0
 26 27  1  0  0  0  0
 26 65  1  0  0  0  0
 26 66  1  0  0  0  0
 27 32  1  0  0  0  0
 27 28  2  0  0  0  0
 28 29  1  0  0  0  0
 28 67  1  0  0  0  0
 29 30  2  0  0  0  0
 29 33  1  0  0  0  0
 30 31  1  0  0  0  0
 30 68  1  0  0  0  0
 31 32  2  0  0  0  0
 31 69  1  0  0  0  0
 33 34  1  0  0  0  0
 33 35  1  0  0  0  0
 33 36  1  0  0  0  0
 34 70  1  0  0  0  0
 34 71  1  0  0  0  0
 34 72  1  0  0  0  0
 35 73  1  0  0  0  0
 35 74  1  0  0  0  0
 35 75  1  0  0  0  0
 36 76  1  0  0  0  0
 36 77  1  0  0  0  0
 36 78  1  0  0  0  0
 37 79  1  0  0  0  0
M  CHG  1  25   1
M  END
