BACE_85.smi:1
 OpenBabel09301811243D
Structure written by MMmdl.
 89 91  0  0  1  0  0  0  0  0999 V2000
   31.3223   43.5877   -8.3239 C   0  0  0  0  0  0  0  0  0  0  0  0
   31.2742   43.8513   -9.8371 C   0  0  0  0  0  0  0  0  0  0  0  0
   31.4370   45.3451  -10.1593 C   0  0  0  0  0  0  0  0  0  0  0  0
   30.0130   43.2731  -10.4665 C   0  0  0  0  0  0  0  0  0  0  0  0
   28.7526   43.8294  -10.1591 C   0  0  0  0  0  0  0  0  0  0  0  0
   27.5796   43.3119  -10.7471 C   0  0  0  0  0  0  0  0  0  0  0  0
   26.2326   43.9414  -10.4389 C   0  0  0  0  0  0  0  0  0  0  0  0
   25.2583   42.9506   -9.9332 N   0  3  0  0  0  0  0  0  0  0  0  0
   24.8445   41.9213  -10.9101 C   0  0  0  0  0  0  0  0  0  0  0  0
   23.7141   41.0362  -10.3446 C   0  0  1  0  0  0  0  0  0  0  0  0
   24.0822   40.5504   -9.0685 O   0  0  0  0  0  0  0  0  0  0  0  0
   22.3137   41.7108  -10.2484 C   0  0  2  0  0  0  0  0  0  0  0  0
   22.3951   42.9902   -9.3828 C   0  0  0  0  0  0  0  0  0  0  0  0
   21.0566   43.7239   -9.1157 C   0  0  2  0  0  0  0  0  0  0  0  0
   20.3869   44.1861  -10.4217 C   0  0  0  0  0  0  0  0  0  0  0  0
   21.2317   44.9293   -8.1617 C   0  0  0  0  0  0  0  0  0  0  0  0
   21.8116   44.6190   -6.7659 C   0  0  0  0  0  0  0  0  0  0  0  0
   21.0263   43.5532   -5.9855 C   0  0  0  0  0  0  0  0  0  0  0  0
   21.5103   43.3907   -4.5343 C   0  0  0  0  0  0  0  0  0  0  0  0
   20.6985   42.3621   -3.7215 C   0  0  0  0  0  0  0  0  0  0  0  0
   21.2991   40.9420   -3.6564 C   0  0  0  0  0  0  0  0  0  0  0  0
   21.4681   40.2055   -4.9975 C   0  0  0  0  0  0  0  0  0  0  0  0
   20.1473   39.9605   -5.7573 C   0  0  0  0  0  0  0  0  0  0  0  0
   20.3548   39.2799   -7.1234 C   0  0  0  0  0  0  0  0  0  0  0  0
   21.3984   38.6510   -7.3077 O   0  0  0  0  0  0  0  0  0  0  0  0
   19.4268   39.4243   -8.1093 N   0  0  0  0  0  0  0  0  0  0  0  0
   18.0820   39.9896   -7.8842 C   0  0  0  0  0  0  0  0  0  0  0  0
   16.9824   38.9651   -8.2280 C   0  0  0  0  0  0  0  0  0  0  0  0
   17.2802   38.1658   -9.5085 C   0  0  0  0  0  0  0  0  0  0  0  0
   18.3999   38.8243  -10.3218 C   0  0  0  0  0  0  0  0  0  0  0  0
   19.7045   38.9198   -9.4875 C   0  0  1  0  0  0  0  0  0  0  0  0
   20.7239   39.7688  -10.2877 C   0  0  0  0  0  0  0  0  0  0  0  0
   21.0022   39.4464  -11.4422 O   0  0  0  0  0  0  0  0  0  0  0  0
   21.3015   40.8197   -9.6796 N   0  0  0  0  0  0  0  0  0  0  0  0
   27.6664   42.2223  -11.6376 C   0  0  0  0  0  0  0  0  0  0  0  0
   28.9195   41.6623  -11.9476 C   0  0  0  0  0  0  0  0  0  0  0  0
   30.0892   42.1862  -11.3653 C   0  0  0  0  0  0  0  0  0  0  0  0
   23.6253   40.1495  -10.9737 H   0  0  0  0  0  0  0  0  0  0  0  0
   21.9945   42.0121  -11.2478 H   0  0  0  0  0  0  0  0  0  0  0  0
   20.3629   43.0319   -8.6385 H   0  0  0  0  0  0  0  0  0  0  0  0
   20.1118   37.9101   -9.4063 H   0  0  0  0  0  0  0  0  0  0  0  0
   31.2563   42.5204   -8.1099 H   0  0  0  0  0  0  0  0  0  0  0  0
   30.5034   44.0835   -7.8020 H   0  0  0  0  0  0  0  0  0  0  0  0
   32.2554   43.9519   -7.8929 H   0  0  0  0  0  0  0  0  0  0  0  0
   32.1291   43.3362  -10.2771 H   0  0  0  0  0  0  0  0  0  0  0  0
   31.4490   45.5141  -11.2367 H   0  0  0  0  0  0  0  0  0  0  0  0
   32.3732   45.7319   -9.7558 H   0  0  0  0  0  0  0  0  0  0  0  0
   30.6266   45.9400   -9.7375 H   0  0  0  0  0  0  0  0  0  0  0  0
   28.6835   44.6651   -9.4779 H   0  0  0  0  0  0  0  0  0  0  0  0
   26.3448   44.7477   -9.7128 H   0  0  0  0  0  0  0  0  0  0  0  0
   25.8344   44.3904  -11.3491 H   0  0  0  0  0  0  0  0  0  0  0  0
   25.6642   42.4835   -9.1354 H   0  0  0  0  0  0  0  0  0  0  0  0
   24.5206   42.4042  -11.8320 H   0  0  0  0  0  0  0  0  0  0  0  0
   25.7126   41.3084  -11.1562 H   0  0  0  0  0  0  0  0  0  0  0  0
   24.4574   39.6880   -9.1726 H   0  0  0  0  0  0  0  0  0  0  0  0
   22.8415   42.7101   -8.4292 H   0  0  0  0  0  0  0  0  0  0  0  0
   23.0938   43.6904   -9.8429 H   0  0  0  0  0  0  0  0  0  0  0  0
   21.0407   44.8480  -10.9903 H   0  0  0  0  0  0  0  0  0  0  0  0
   19.4629   44.7278  -10.2184 H   0  0  0  0  0  0  0  0  0  0  0  0
   20.1244   43.3430  -11.0605 H   0  0  0  0  0  0  0  0  0  0  0  0
   21.8633   45.6780   -8.6414 H   0  0  0  0  0  0  0  0  0  0  0  0
   20.2617   45.4095   -8.0241 H   0  0  0  0  0  0  0  0  0  0  0  0
   22.8565   44.3194   -6.8475 H   0  0  0  0  0  0  0  0  0  0  0  0
   21.8194   45.5453   -6.1905 H   0  0  0  0  0  0  0  0  0  0  0  0
   19.9677   43.8152   -5.9843 H   0  0  0  0  0  0  0  0  0  0  0  0
   21.1103   42.6029   -6.5074 H   0  0  0  0  0  0  0  0  0  0  0  0
   22.5716   43.1407   -4.5093 H   0  0  0  0  0  0  0  0  0  0  0  0
   21.4219   44.3599   -4.0417 H   0  0  0  0  0  0  0  0  0  0  0  0
   20.6371   42.7261   -2.6952 H   0  0  0  0  0  0  0  0  0  0  0  0
   19.6654   42.3306   -4.0681 H   0  0  0  0  0  0  0  0  0  0  0  0
   22.2730   40.9985   -3.1690 H   0  0  0  0  0  0  0  0  0  0  0  0
   20.6782   40.3321   -2.9992 H   0  0  0  0  0  0  0  0  0  0  0  0
   22.1694   40.7541   -5.6273 H   0  0  0  0  0  0  0  0  0  0  0  0
   21.9453   39.2462   -4.7934 H   0  0  0  0  0  0  0  0  0  0  0  0
   19.4700   39.3537   -5.1559 H   0  0  0  0  0  0  0  0  0  0  0  0
   19.6713   40.9266   -5.9082 H   0  0  0  0  0  0  0  0  0  0  0  0
   17.8923   40.3367   -6.8713 H   0  0  0  0  0  0  0  0  0  0  0  0
   17.9810   40.8741   -8.5148 H   0  0  0  0  0  0  0  0  0  0  0  0
   16.8523   38.2704   -7.3972 H   0  0  0  0  0  0  0  0  0  0  0  0
   16.0323   39.4899   -8.3327 H   0  0  0  0  0  0  0  0  0  0  0  0
   17.5847   37.1527   -9.2420 H   0  0  0  0  0  0  0  0  0  0  0  0
   16.3768   38.0658  -10.1109 H   0  0  0  0  0  0  0  0  0  0  0  0
   18.5754   38.2417  -11.2274 H   0  0  0  0  0  0  0  0  0  0  0  0
   18.0741   39.8113  -10.6563 H   0  0  0  0  0  0  0  0  0  0  0  0
   21.0171   41.0167   -8.7309 H   0  0  0  0  0  0  0  0  0  0  0  0
   26.7746   41.8183  -12.0940 H   0  0  0  0  0  0  0  0  0  0  0  0
   28.9842   40.8324  -12.6358 H   0  0  0  0  0  0  0  0  0  0  0  0
   31.0458   41.7502  -11.6136 H   0  0  0  0  0  0  0  0  0  0  0  0
   24.4311   43.4437   -9.6281 H   0  0  0  0  0  0  0  0  0  0  0  0
  1  2  1  0  0  0  0
  1 42  1  0  0  0  0
  1 43  1  0  0  0  0
  1 44  1  0  0  0  0
  2  3  1  0  0  0  0
  2  4  1  0  0  0  0
  2 45  1  0  0  0  0
  3 46  1  0  0  0  0
  3 47  1  0  0  0  0
  3 48  1  0  0  0  0
  4 37  1  0  0  0  0
  4  5  2  0  0  0  0
  5  6  1  0  0  0  0
  5 49  1  0  0  0  0
  6  7  1  0  0  0  0
  6 35  2  0  0  0  0
  7  8  1  0  0  0  0
  7 50  1  0  0  0  0
  7 51  1  0  0  0  0
  8  9  1  0  0  0  0
  8 52  1  0  0  0  0
  8 89  1  0  0  0  0
  9 10  1  0  0  0  0
  9 53  1  0  0  0  0
  9 54  1  0  0  0  0
 10 38  1  6  0  0  0
 10 11  1  0  0  0  0
 10 12  1  0  0  0  0
 11 55  1  0  0  0  0
 12 39  1  6  0  0  0
 12 34  1  0  0  0  0
 12 13  1  0  0  0  0
 13 14  1  0  0  0  0
 13 56  1  0  0  0  0
 13 57  1  0  0  0  0
 14 40  1  1  0  0  0
 14 15  1  0  0  0  0
 14 16  1  0  0  0  0
 15 58  1  0  0  0  0
 15 59  1  0  0  0  0
 15 60  1  0  0  0  0
 16 17  1  0  0  0  0
 16 61  1  0  0  0  0
 16 62  1  0  0  0  0
 17 18  1  0  0  0  0
 17 63  1  0  0  0  0
 17 64  1  0  0  0  0
 18 19  1  0  0  0  0
 18 65  1  0  0  0  0
 18 66  1  0  0  0  0
 19 20  1  0  0  0  0
 19 67  1  0  0  0  0
 19 68  1  0  0  0  0
 20 21  1  0  0  0  0
 20 69  1  0  0  0  0
 20 70  1  0  0  0  0
 21 22  1  0  0  0  0
 21 71  1  0  0  0  0
 21 72  1  0  0  0  0
 22 23  1  0  0  0  0
 22 73  1  0  0  0  0
 22 74  1  0  0  0  0
 23 24  1  0  0  0  0
 23 75  1  0  0  0  0
 23 76  1  0  0  0  0
 24 25  2  0  0  0  0
 24 26  1  0  0  0  0
 26 31  1  0  0  0  0
 26 27  1  0  0  0  0
 27 28  1  0  0  0  0
 27 77  1  0  0  0  0
 27 78  1  0  0  0  0
 28 29  1  0  0  0  0
 28 79  1  0  0  0  0
 28 80  1  0  0  0  0
 29 30  1  0  0  0  0
 29 81  1  0  0  0  0
 29 82  1  0  0  0  0
 30 31  1  0  0  0  0
 30 83  1  0  0  0  0
 30 84  1  0  0  0  0
 31 41  1  1  0  0  0
 31 32  1  0  0  0  0
 32 33  2  0  0  0  0
 32 34  1  0  0  0  0
 34 85  1  0  0  0  0
 35 36  1  0  0  0  0
 35 86  1  0  0  0  0
 36 37  2  0  0  0  0
 36 87  1  0  0  0  0
 37 88  1  0  0  0  0
M  CHG  1   8   1
M  END
