BACE_99.smi:1
 OpenBabel09301811243D
Structure written by MMmdl.
 82 85  0  0  1  0  0  0  0  0999 V2000
   17.9985   46.6517  -12.7031 C   0  0  0  0  0  0  0  0  0  0  0  0
   17.1097   45.5721  -12.4361 O   0  0  0  0  0  0  0  0  0  0  0  0
   17.6495   44.3916  -11.9701 C   0  0  0  0  0  0  0  0  0  0  0  0
   16.7822   43.3218  -11.7004 C   0  0  0  0  0  0  0  0  0  0  0  0
   17.3172   42.1122  -11.2143 C   0  0  0  0  0  0  0  0  0  0  0  0
   18.7158   42.0243  -11.0346 C   0  0  0  0  0  0  0  0  0  0  0  0
   19.5233   43.1441  -11.3476 C   0  0  0  0  0  0  0  0  0  0  0  0
   18.9855   44.3017  -11.7996 N   0  0  0  0  0  0  0  0  0  0  0  0
   20.9324   43.1054  -11.2394 N   0  0  0  0  0  0  0  0  0  0  0  0
   21.7125   44.3342  -11.3658 C   0  0  0  0  0  0  0  0  0  0  0  0
   21.6428   41.8355  -11.1673 C   0  0  0  0  0  0  0  0  0  0  0  0
   22.0544   41.4996   -9.7284 C   0  0  0  0  0  0  0  0  0  0  0  0
   22.7858   40.1540   -9.6269 C   0  0  0  0  0  0  0  0  0  0  0  0
   21.8836   38.9205   -9.8477 C   0  0  0  0  0  0  0  0  0  0  0  0
   20.6859   38.8190   -8.9142 C   0  0  0  0  0  0  0  0  0  0  0  0
   20.8087   39.1216   -7.5408 C   0  0  0  0  0  0  0  0  0  0  0  0
   19.6979   38.9999   -6.6877 C   0  0  0  0  0  0  0  0  0  0  0  0
   18.4657   38.5496   -7.1903 C   0  0  0  0  0  0  0  0  0  0  0  0
   18.3304   38.2471   -8.5590 C   0  0  0  0  0  0  0  0  0  0  0  0
   16.9985   37.7581   -9.1062 C   0  0  0  0  0  0  0  0  0  0  0  0
   16.0372   38.8665   -9.6107 C   0  0  2  0  0  0  0  0  0  0  0  0
   16.7562   40.0984   -9.9850 N   0  0  0  0  0  0  0  0  0  0  0  0
   16.4025   40.9466  -10.9702 C   0  0  0  0  0  0  0  0  0  0  0  0
   15.3682   40.8417  -11.6316 O   0  0  0  0  0  0  0  0  0  0  0  0
   14.8181   39.0889   -8.6606 C   0  0  2  0  0  0  0  0  0  0  0  0
   13.8095   39.7500   -9.3886 O   0  0  0  0  0  0  0  0  0  0  0  0
   15.0242   39.7253   -7.2571 C   0  0  0  0  0  0  0  0  0  0  0  0
   15.7980   40.9851   -7.2420 N   0  3  0  0  0  0  0  0  0  0  0  0
   15.1368   42.1563   -7.8632 C   0  0  0  0  0  0  0  0  0  0  0  0
   16.0423   43.3691   -8.0614 C   0  0  0  0  0  0  0  0  0  0  0  0
   15.5624   44.4457   -8.8368 C   0  0  0  0  0  0  0  0  0  0  0  0
   16.3363   45.6100   -9.0053 C   0  0  0  0  0  0  0  0  0  0  0  0
   17.5993   45.7073   -8.3927 C   0  0  0  0  0  0  0  0  0  0  0  0
   18.0885   44.6459   -7.6036 C   0  0  0  0  0  0  0  0  0  0  0  0
   17.3125   43.4748   -7.4562 C   0  0  0  0  0  0  0  0  0  0  0  0
   19.4351   44.7543   -6.8999 C   0  0  0  0  0  0  0  0  0  0  0  0
   19.5059   45.9900   -5.9842 C   0  0  0  0  0  0  0  0  0  0  0  0
   20.5912   44.7301   -7.9058 C   0  0  0  0  0  0  0  0  0  0  0  0
   19.4412   38.3826   -9.4195 C   0  0  0  0  0  0  0  0  0  0  0  0
   15.6061   38.4601  -10.5258 H   0  0  0  0  0  0  0  0  0  0  0  0
   14.3835   38.1076   -8.4725 H   0  0  0  0  0  0  0  0  0  0  0  0
   17.4291   47.5060  -13.0682 H   0  0  0  0  0  0  0  0  0  0  0  0
   18.7263   46.3871  -13.4710 H   0  0  0  0  0  0  0  0  0  0  0  0
   18.5257   46.9651  -11.8014 H   0  0  0  0  0  0  0  0  0  0  0  0
   15.7192   43.4466  -11.8350 H   0  0  0  0  0  0  0  0  0  0  0  0
   19.1539   41.1063  -10.6709 H   0  0  0  0  0  0  0  0  0  0  0  0
   21.2393   45.1623  -10.8404 H   0  0  0  0  0  0  0  0  0  0  0  0
   21.8308   44.6079  -12.4145 H   0  0  0  0  0  0  0  0  0  0  0  0
   22.7081   44.1992  -10.9444 H   0  0  0  0  0  0  0  0  0  0  0  0
   21.0580   41.0332  -11.6153 H   0  0  0  0  0  0  0  0  0  0  0  0
   22.5386   41.9094  -11.7865 H   0  0  0  0  0  0  0  0  0  0  0  0
   22.7159   42.2838   -9.3592 H   0  0  0  0  0  0  0  0  0  0  0  0
   21.1812   41.5108   -9.0745 H   0  0  0  0  0  0  0  0  0  0  0  0
   23.6015   40.1500  -10.3521 H   0  0  0  0  0  0  0  0  0  0  0  0
   23.2679   40.0823   -8.6523 H   0  0  0  0  0  0  0  0  0  0  0  0
   21.5349   38.9148  -10.8799 H   0  0  0  0  0  0  0  0  0  0  0  0
   22.4638   38.0067   -9.7247 H   0  0  0  0  0  0  0  0  0  0  0  0
   21.7534   39.4441   -7.1295 H   0  0  0  0  0  0  0  0  0  0  0  0
   19.7959   39.2373   -5.6401 H   0  0  0  0  0  0  0  0  0  0  0  0
   17.6364   38.4186   -6.5108 H   0  0  0  0  0  0  0  0  0  0  0  0
   17.2202   37.0864   -9.9367 H   0  0  0  0  0  0  0  0  0  0  0  0
   16.5119   37.1289   -8.3619 H   0  0  0  0  0  0  0  0  0  0  0  0
   17.6543   40.2457   -9.5487 H   0  0  0  0  0  0  0  0  0  0  0  0
   13.0328   39.8792   -8.8511 H   0  0  0  0  0  0  0  0  0  0  0  0
   14.0609   39.8850   -6.7686 H   0  0  0  0  0  0  0  0  0  0  0  0
   15.5439   39.0099   -6.6191 H   0  0  0  0  0  0  0  0  0  0  0  0
   15.9737   41.2272   -6.2719 H   0  0  0  0  0  0  0  0  0  0  0  0
   14.7444   41.9116   -8.8458 H   0  0  0  0  0  0  0  0  0  0  0  0
   14.2770   42.4355   -7.2522 H   0  0  0  0  0  0  0  0  0  0  0  0
   14.5920   44.3819   -9.3063 H   0  0  0  0  0  0  0  0  0  0  0  0
   15.9674   46.4236   -9.6085 H   0  0  0  0  0  0  0  0  0  0  0  0
   18.1890   46.6000   -8.5335 H   0  0  0  0  0  0  0  0  0  0  0  0
   17.6983   42.6736   -6.8401 H   0  0  0  0  0  0  0  0  0  0  0  0
   19.5474   43.8782   -6.2581 H   0  0  0  0  0  0  0  0  0  0  0  0
   18.6809   46.0021   -5.2754 H   0  0  0  0  0  0  0  0  0  0  0  0
   19.4636   46.9167   -6.5570 H   0  0  0  0  0  0  0  0  0  0  0  0
   20.4354   45.9980   -5.4143 H   0  0  0  0  0  0  0  0  0  0  0  0
   20.5623   43.8192   -8.5026 H   0  0  0  0  0  0  0  0  0  0  0  0
   21.5558   44.7610   -7.4000 H   0  0  0  0  0  0  0  0  0  0  0  0
   20.5449   45.5794   -8.5891 H   0  0  0  0  0  0  0  0  0  0  0  0
   19.3418   38.1376  -10.4684 H   0  0  0  0  0  0  0  0  0  0  0  0
   16.6814   40.8225   -7.6983 H   0  0  0  0  0  0  0  0  0  0  0  0
  1  2  1  0  0  0  0
  1 42  1  0  0  0  0
  1 43  1  0  0  0  0
  1 44  1  0  0  0  0
  2  3  1  0  0  0  0
  3  8  1  0  0  0  0
  3  4  2  0  0  0  0
  4  5  1  0  0  0  0
  4 45  1  0  0  0  0
  5 23  1  0  0  0  0
  5  6  2  0  0  0  0
  6  7  1  0  0  0  0
  6 46  1  0  0  0  0
  7  8  2  0  0  0  0
  7  9  1  0  0  0  0
  9 10  1  0  0  0  0
  9 11  1  0  0  0  0
 10 47  1  0  0  0  0
 10 48  1  0  0  0  0
 10 49  1  0  0  0  0
 11 12  1  0  0  0  0
 11 50  1  0  0  0  0
 11 51  1  0  0  0  0
 12 13  1  0  0  0  0
 12 52  1  0  0  0  0
 12 53  1  0  0  0  0
 13 14  1  0  0  0  0
 13 54  1  0  0  0  0
 13 55  1  0  0  0  0
 14 15  1  0  0  0  0
 14 56  1  0  0  0  0
 14 57  1  0  0  0  0
 15 39  1  0  0  0  0
 15 16  2  0  0  0  0
 16 17  1  0  0  0  0
 16 58  1  0  0  0  0
 17 18  2  0  0  0  0
 17 59  1  0  0  0  0
 18 19  1  0  0  0  0
 18 60  1  0  0  0  0
 19 20  1  0  0  0  0
 19 39  2  0  0  0  0
 20 21  1  0  0  0  0
 20 61  1  0  0  0  0
 20 62  1  0  0  0  0
 21 40  1  6  0  0  0
 21 22  1  0  0  0  0
 21 25  1  0  0  0  0
 22 23  1  0  0  0  0
 22 63  1  0  0  0  0
 23 24  2  0  0  0  0
 25 41  1  1  0  0  0
 25 26  1  0  0  0  0
 25 27  1  0  0  0  0
 26 64  1  0  0  0  0
 27 28  1  0  0  0  0
 27 65  1  0  0  0  0
 27 66  1  0  0  0  0
 28 29  1  0  0  0  0
 28 67  1  0  0  0  0
 28 82  1  0  0  0  0
 29 30  1  0  0  0  0
 29 68  1  0  0  0  0
 29 69  1  0  0  0  0
 30 35  1  0  0  0  0
 30 31  2  0  0  0  0
 31 32  1  0  0  0  0
 31 70  1  0  0  0  0
 32 33  2  0  0  0  0
 32 71  1  0  0  0  0
 33 34  1  0  0  0  0
 33 72  1  0  0  0  0
 34 35  2  0  0  0  0
 34 36  1  0  0  0  0
 35 73  1  0  0  0  0
 36 37  1  0  0  0  0
 36 38  1  0  0  0  0
 36 74  1  0  0  0  0
 37 75  1  0  0  0  0
 37 76  1  0  0  0  0
 37 77  1  0  0  0  0
 38 78  1  0  0  0  0
 38 79  1  0  0  0  0
 38 80  1  0  0  0  0
 39 81  1  0  0  0  0
M  CHG  1  28   1
M  END
