BACE_33.smi:1
 OpenBabel09301811243D
Structure written by MMmdl.
 88 89  0  0  1  0  0  0  0  0999 V2000
   19.8677   41.9001  -11.5778 C   0  0  0  0  0  0  0  0  0  0  0  0
   19.3015   40.5008  -11.8475 C   0  0  0  0  0  0  0  0  0  0  0  0
   20.4430   39.4679  -11.8811 C   0  0  0  0  0  0  0  0  0  0  0  0
   18.1730   40.1745  -10.8669 C   0  0  0  0  0  0  0  0  0  0  0  0
   18.3646   39.2989   -9.7776 C   0  0  0  0  0  0  0  0  0  0  0  0
   17.3731   39.1504   -8.7836 C   0  0  0  0  0  0  0  0  0  0  0  0
   17.6588   38.3384   -7.5269 C   0  0  0  0  0  0  0  0  0  0  0  0
   18.5539   39.0354   -6.5689 N   0  3  0  0  0  0  0  0  0  0  0  0
   19.9260   39.3199   -7.0624 C   0  0  0  0  0  0  0  0  0  0  0  0
   20.8630   39.9241   -5.9914 C   0  0  1  0  0  0  0  0  0  0  0  0
   22.0587   39.1745   -6.0412 O   0  0  0  0  0  0  0  0  0  0  0  0
   21.2582   41.4127   -6.2098 C   0  0  2  0  0  0  0  0  0  0  0  0
   22.0931   41.9332   -5.0026 C   0  0  0  0  0  0  0  0  0  0  0  0
   22.6769   43.3672   -5.0526 C   0  0  2  0  0  0  0  0  0  0  0  0
   21.6084   44.4461   -4.8403 C   0  0  0  0  0  0  0  0  0  0  0  0
   23.6088   43.6224   -6.2635 C   0  0  0  0  0  0  0  0  0  0  0  0
   24.1552   45.0598   -6.3656 C   0  0  0  0  0  0  0  0  0  0  0  0
   23.3227   45.9342   -7.3194 C   0  0  0  0  0  0  0  0  0  0  0  0
   23.4207   47.4387   -7.0211 C   0  0  0  0  0  0  0  0  0  0  0  0
   22.7670   48.3302   -8.0965 C   0  0  0  0  0  0  0  0  0  0  0  0
   21.2900   48.0229   -8.4424 C   0  0  2  0  0  0  0  0  0  0  0  0
   20.8857   48.8171   -9.6978 C   0  0  0  0  0  0  0  0  0  0  0  0
   20.3220   48.3038   -7.2685 C   0  0  0  0  0  0  0  0  0  0  0  0
   18.9057   47.6990   -7.4253 C   0  0  0  0  0  0  0  0  0  0  0  0
   18.8168   46.2240   -6.9877 C   0  0  0  0  0  0  0  0  0  0  0  0
   18.8602   46.0087   -5.7732 O   0  0  0  0  0  0  0  0  0  0  0  0
   18.6515   45.2282   -7.9030 N   0  0  0  0  0  0  0  0  0  0  0  0
   18.6380   45.4903   -9.3515 C   0  0  0  0  0  0  0  0  0  0  0  0
   18.4962   43.8213   -7.4490 C   0  0  1  0  0  0  0  0  0  0  0  0
   17.4676   43.0498   -8.2958 C   0  0  0  0  0  0  0  0  0  0  0  0
   19.8328   43.0558   -7.4686 C   0  0  0  0  0  0  0  0  0  0  0  0
   20.6386   43.2220   -8.3829 O   0  0  0  0  0  0  0  0  0  0  0  0
   20.0599   42.2243   -6.4364 N   0  0  0  0  0  0  0  0  0  0  0  0
   16.1223   39.7784   -8.9541 C   0  0  0  0  0  0  0  0  0  0  0  0
   15.8870   40.5818  -10.0862 C   0  0  0  0  0  0  0  0  0  0  0  0
   16.9166   40.7991  -11.0228 C   0  0  0  0  0  0  0  0  0  0  0  0
   20.4288   39.7905   -4.9989 H   0  0  0  0  0  0  0  0  0  0  0  0
   21.8828   41.4541   -7.1029 H   0  0  0  0  0  0  0  0  0  0  0  0
   23.3125   43.4381   -4.1688 H   0  0  0  0  0  0  0  0  0  0  0  0
   21.2294   46.9681   -8.7004 H   0  0  0  0  0  0  0  0  0  0  0  0
   18.0984   43.8022   -6.4400 H   0  0  0  0  0  0  0  0  0  0  0  0
   19.0967   42.6667  -11.6509 H   0  0  0  0  0  0  0  0  0  0  0  0
   20.6535   42.1483  -12.2911 H   0  0  0  0  0  0  0  0  0  0  0  0
   20.3017   41.9551  -10.5812 H   0  0  0  0  0  0  0  0  0  0  0  0
   18.8598   40.5231  -12.8397 H   0  0  0  0  0  0  0  0  0  0  0  0
   20.0599   38.4625  -12.0397 H   0  0  0  0  0  0  0  0  0  0  0  0
   21.0188   39.4657  -10.9553 H   0  0  0  0  0  0  0  0  0  0  0  0
   21.1412   39.6839  -12.6906 H   0  0  0  0  0  0  0  0  0  0  0  0
   19.3044   38.7834   -9.6582 H   0  0  0  0  0  0  0  0  0  0  0  0
   18.0734   37.3657   -7.7964 H   0  0  0  0  0  0  0  0  0  0  0  0
   16.7164   38.1500   -7.0148 H   0  0  0  0  0  0  0  0  0  0  0  0
   18.6275   38.4423   -5.7536 H   0  0  0  0  0  0  0  0  0  0  0  0
   19.9011   40.0073   -7.9037 H   0  0  0  0  0  0  0  0  0  0  0  0
   20.3283   38.3790   -7.4442 H   0  0  0  0  0  0  0  0  0  0  0  0
   22.4882   39.3300   -6.8696 H   0  0  0  0  0  0  0  0  0  0  0  0
   21.4965   41.8310   -4.0953 H   0  0  0  0  0  0  0  0  0  0  0  0
   22.9370   41.2608   -4.8483 H   0  0  0  0  0  0  0  0  0  0  0  0
   22.0613   45.3913   -4.5428 H   0  0  0  0  0  0  0  0  0  0  0  0
   20.9101   44.1501   -4.0552 H   0  0  0  0  0  0  0  0  0  0  0  0
   21.0355   44.6433   -5.7368 H   0  0  0  0  0  0  0  0  0  0  0  0
   24.4611   42.9501   -6.1799 H   0  0  0  0  0  0  0  0  0  0  0  0
   23.1186   43.3567   -7.2002 H   0  0  0  0  0  0  0  0  0  0  0  0
   25.1803   45.0346   -6.7353 H   0  0  0  0  0  0  0  0  0  0  0  0
   24.2195   45.5063   -5.3723 H   0  0  0  0  0  0  0  0  0  0  0  0
   23.6336   45.7331   -8.3462 H   0  0  0  0  0  0  0  0  0  0  0  0
   22.2767   45.6364   -7.2668 H   0  0  0  0  0  0  0  0  0  0  0  0
   24.4721   47.7162   -6.9387 H   0  0  0  0  0  0  0  0  0  0  0  0
   22.9847   47.6451   -6.0432 H   0  0  0  0  0  0  0  0  0  0  0  0
   22.8612   49.3745   -7.7967 H   0  0  0  0  0  0  0  0  0  0  0  0
   23.3627   48.2314   -9.0050 H   0  0  0  0  0  0  0  0  0  0  0  0
   19.8760   48.5792  -10.0297 H   0  0  0  0  0  0  0  0  0  0  0  0
   21.5513   48.5956  -10.5327 H   0  0  0  0  0  0  0  0  0  0  0  0
   20.9302   49.8922   -9.5185 H   0  0  0  0  0  0  0  0  0  0  0  0
   20.7505   47.9339   -6.3374 H   0  0  0  0  0  0  0  0  0  0  0  0
   20.2358   49.3818   -7.1293 H   0  0  0  0  0  0  0  0  0  0  0  0
   18.4836   47.8803   -8.4108 H   0  0  0  0  0  0  0  0  0  0  0  0
   18.2433   48.2435   -6.7519 H   0  0  0  0  0  0  0  0  0  0  0  0
   18.8717   44.6031   -9.9397 H   0  0  0  0  0  0  0  0  0  0  0  0
   19.3815   46.2250   -9.6522 H   0  0  0  0  0  0  0  0  0  0  0  0
   17.6558   45.8491   -9.6622 H   0  0  0  0  0  0  0  0  0  0  0  0
   17.2215   42.1042   -7.8110 H   0  0  0  0  0  0  0  0  0  0  0  0
   17.8275   42.8089   -9.2943 H   0  0  0  0  0  0  0  0  0  0  0  0
   16.5363   43.6074   -8.3927 H   0  0  0  0  0  0  0  0  0  0  0  0
   19.3299   42.1505   -5.7361 H   0  0  0  0  0  0  0  0  0  0  0  0
   15.3412   39.6571   -8.2156 H   0  0  0  0  0  0  0  0  0  0  0  0
   14.9271   41.0634  -10.2077 H   0  0  0  0  0  0  0  0  0  0  0  0
   16.7453   41.4593  -11.8593 H   0  0  0  0  0  0  0  0  0  0  0  0
   18.1139   39.9030   -6.2802 H   0  0  0  0  0  0  0  0  0  0  0  0
  1  2  1  0  0  0  0
  1 42  1  0  0  0  0
  1 43  1  0  0  0  0
  1 44  1  0  0  0  0
  2  3  1  0  0  0  0
  2  4  1  0  0  0  0
  2 45  1  0  0  0  0
  3 46  1  0  0  0  0
  3 47  1  0  0  0  0
  3 48  1  0  0  0  0
  4 36  1  0  0  0  0
  4  5  2  0  0  0  0
  5  6  1  0  0  0  0
  5 49  1  0  0  0  0
  6  7  1  0  0  0  0
  6 34  2  0  0  0  0
  7  8  1  0  0  0  0
  7 50  1  0  0  0  0
  7 51  1  0  0  0  0
  8  9  1  0  0  0  0
  8 52  1  0  0  0  0
  8 88  1  0  0  0  0
  9 10  1  0  0  0  0
  9 53  1  0  0  0  0
  9 54  1  0  0  0  0
 10 37  1  1  0  0  0
 10 11  1  0  0  0  0
 10 12  1  0  0  0  0
 11 55  1  0  0  0  0
 12 38  1  6  0  0  0
 12 33  1  0  0  0  0
 12 13  1  0  0  0  0
 13 14  1  0  0  0  0
 13 56  1  0  0  0  0
 13 57  1  0  0  0  0
 14 39  1  1  0  0  0
 14 15  1  0  0  0  0
 14 16  1  0  0  0  0
 15 58  1  0  0  0  0
 15 59  1  0  0  0  0
 15 60  1  0  0  0  0
 16 17  1  0  0  0  0
 16 61  1  0  0  0  0
 16 62  1  0  0  0  0
 17 18  1  0  0  0  0
 17 63  1  0  0  0  0
 17 64  1  0  0  0  0
 18 19  1  0  0  0  0
 18 65  1  0  0  0  0
 18 66  1  0  0  0  0
 19 20  1  0  0  0  0
 19 67  1  0  0  0  0
 19 68  1  0  0  0  0
 20 21  1  0  0  0  0
 20 69  1  0  0  0  0
 20 70  1  0  0  0  0
 21 40  1  6  0  0  0
 21 22  1  0  0  0  0
 21 23  1  0  0  0  0
 22 71  1  0  0  0  0
 22 72  1  0  0  0  0
 22 73  1  0  0  0  0
 23 24  1  0  0  0  0
 23 74  1  0  0  0  0
 23 75  1  0  0  0  0
 24 25  1  0  0  0  0
 24 76  1  0  0  0  0
 24 77  1  0  0  0  0
 25 26  2  0  0  0  0
 25 27  1  0  0  0  0
 27 28  1  0  0  0  0
 27 29  1  0  0  0  0
 28 78  1  0  0  0  0
 28 79  1  0  0  0  0
 28 80  1  0  0  0  0
 29 41  1  1  0  0  0
 29 30  1  0  0  0  0
 29 31  1  0  0  0  0
 30 81  1  0  0  0  0
 30 82  1  0  0  0  0
 30 83  1  0  0  0  0
 31 32  2  0  0  0  0
 31 33  1  0  0  0  0
 33 84  1  0  0  0  0
 34 35  1  0  0  0  0
 34 85  1  0  0  0  0
 35 36  2  0  0  0  0
 35 86  1  0  0  0  0
 36 87  1  0  0  0  0
M  CHG  1   8   1
M  END
