BACE_64.smi:1
 OpenBabel09301811243D
Structure written by MMmdl.
 84 86  0  0  1  0  0  0  0  0999 V2000
   15.6465   46.8888  -12.7280 C   0  0  0  0  0  0  0  0  0  0  0  0
   16.6248   47.7466  -11.9175 C   0  0  0  0  0  0  0  0  0  0  0  0
   17.6416   46.9017  -11.1335 C   0  0  0  0  0  0  0  0  0  0  0  0
   17.0217   45.9102  -10.2019 C   0  0  0  0  0  0  0  0  0  0  0  0
   17.1175   44.5528  -10.0677 C   0  0  0  0  0  0  0  0  0  0  0  0
   16.2587   44.2593   -8.9735 C   0  0  0  0  0  0  0  0  0  0  0  0
   15.9475   42.9231   -8.3665 C   0  0  0  0  0  0  0  0  0  0  0  0
   16.8604   42.6521   -7.2405 N   0  3  0  0  0  0  0  0  0  0  0  0
   18.2102   42.2207   -7.6519 C   0  0  0  0  0  0  0  0  0  0  0  0
   18.6650   42.9442   -8.9329 C   0  0  1  0  0  0  0  0  0  0  0  0
   19.6219   43.9225   -8.5717 O   0  0  0  0  0  0  0  0  0  0  0  0
   19.2631   41.9608   -9.9809 C   0  0  2  0  0  0  0  0  0  0  0  0
   20.7400   41.5656   -9.6864 C   0  0  0  0  0  0  0  0  0  0  0  0
   21.2820   40.2328  -10.2802 C   0  0  2  0  0  0  0  0  0  0  0  0
   20.6670   39.8016  -11.6244 C   0  0  0  0  0  0  0  0  0  0  0  0
   21.3849   39.0858   -9.2425 C   0  0  0  0  0  0  0  0  0  0  0  0
   20.0713   38.6252   -8.5854 C   0  0  0  0  0  0  0  0  0  0  0  0
   19.3313   37.5100   -9.3503 C   0  0  0  0  0  0  0  0  0  0  0  0
   17.8919   37.2895   -8.8564 C   0  0  0  0  0  0  0  0  0  0  0  0
   16.9481   38.4062   -9.3243 C   0  0  0  0  0  0  0  0  0  0  0  0
   15.5258   38.3116   -8.7617 C   0  0  0  0  0  0  0  0  0  0  0  0
   14.7355   39.6151   -8.9597 C   0  0  0  0  0  0  0  0  0  0  0  0
   14.4599   39.8999  -10.3618 N   0  0  0  0  0  0  0  0  0  0  0  0
   14.9204   41.1533  -10.7801 C   0  0  0  0  0  0  0  0  0  0  0  0
   14.0232   42.2387  -10.8119 C   0  0  0  0  0  0  0  0  0  0  0  0
   14.4555   43.5073  -11.2478 C   0  0  0  0  0  0  0  0  0  0  0  0
   13.4909   44.6783  -11.2744 C   0  0  0  0  0  0  0  0  0  0  0  0
   12.4098   44.4984  -10.3736 O   0  0  0  0  0  0  0  0  0  0  0  0
   12.8117   43.9127   -9.1477 C   0  0  0  0  0  0  0  0  0  0  0  0
   15.7976   43.6883  -11.6389 C   0  0  0  0  0  0  0  0  0  0  0  0
   16.7115   42.6128  -11.6028 C   0  0  0  0  0  0  0  0  0  0  0  0
   16.2624   41.3418  -11.1796 C   0  0  0  0  0  0  0  0  0  0  0  0
   18.1119   42.8309  -12.1059 C   0  0  0  0  0  0  0  0  0  0  0  0
   18.2758   43.3515  -13.2069 O   0  0  0  0  0  0  0  0  0  0  0  0
   19.1719   42.5083  -11.3382 N   0  0  0  0  0  0  0  0  0  0  0  0
   15.6867   45.3500   -8.4917 N   0  0  0  0  0  0  0  0  0  0  0  0
   16.1695   46.4088   -9.2686 O   0  0  0  0  0  0  0  0  0  0  0  0
   17.8010   43.4649   -9.3430 H   0  0  0  0  0  0  0  0  0  0  0  0
   18.6684   41.0521   -9.9578 H   0  0  0  0  0  0  0  0  0  0  0  0
   22.3250   40.4452  -10.5210 H   0  0  0  0  0  0  0  0  0  0  0  0
   14.9389   47.5157  -13.2711 H   0  0  0  0  0  0  0  0  0  0  0  0
   15.0734   46.2251  -12.0799 H   0  0  0  0  0  0  0  0  0  0  0  0
   16.1736   46.2731  -13.4576 H   0  0  0  0  0  0  0  0  0  0  0  0
   17.1519   48.4207  -12.5939 H   0  0  0  0  0  0  0  0  0  0  0  0
   16.0609   48.3761  -11.2279 H   0  0  0  0  0  0  0  0  0  0  0  0
   18.2868   46.3719  -11.8353 H   0  0  0  0  0  0  0  0  0  0  0  0
   18.2945   47.5623  -10.5618 H   0  0  0  0  0  0  0  0  0  0  0  0
   17.7120   43.8738  -10.6608 H   0  0  0  0  0  0  0  0  0  0  0  0
   14.9173   42.9028   -8.0089 H   0  0  0  0  0  0  0  0  0  0  0  0
   16.0417   42.1311   -9.1114 H   0  0  0  0  0  0  0  0  0  0  0  0
   16.9430   43.4945   -6.6894 H   0  0  0  0  0  0  0  0  0  0  0  0
   18.9152   42.3842   -6.8359 H   0  0  0  0  0  0  0  0  0  0  0  0
   18.1735   41.1464   -7.8318 H   0  0  0  0  0  0  0  0  0  0  0  0
   19.9369   44.3401   -9.3597 H   0  0  0  0  0  0  0  0  0  0  0  0
   21.3809   42.3778  -10.0335 H   0  0  0  0  0  0  0  0  0  0  0  0
   20.9032   41.5409   -8.6088 H   0  0  0  0  0  0  0  0  0  0  0  0
   19.5937   39.6307  -11.5534 H   0  0  0  0  0  0  0  0  0  0  0  0
   21.1243   38.8802  -11.9854 H   0  0  0  0  0  0  0  0  0  0  0  0
   20.8298   40.5605  -12.3898 H   0  0  0  0  0  0  0  0  0  0  0  0
   21.8948   38.2282   -9.6837 H   0  0  0  0  0  0  0  0  0  0  0  0
   22.0486   39.4263   -8.4467 H   0  0  0  0  0  0  0  0  0  0  0  0
   20.2995   38.2411   -7.5906 H   0  0  0  0  0  0  0  0  0  0  0  0
   19.4336   39.4872   -8.4096 H   0  0  0  0  0  0  0  0  0  0  0  0
   19.3108   37.7131  -10.4192 H   0  0  0  0  0  0  0  0  0  0  0  0
   19.8941   36.5825   -9.2404 H   0  0  0  0  0  0  0  0  0  0  0  0
   17.5231   36.3350   -9.2337 H   0  0  0  0  0  0  0  0  0  0  0  0
   17.8837   37.2136   -7.7686 H   0  0  0  0  0  0  0  0  0  0  0  0
   17.3566   39.3704   -9.0351 H   0  0  0  0  0  0  0  0  0  0  0  0
   16.9077   38.4026  -10.4135 H   0  0  0  0  0  0  0  0  0  0  0  0
   14.9971   37.4694   -9.2096 H   0  0  0  0  0  0  0  0  0  0  0  0
   15.5785   38.1069   -7.6920 H   0  0  0  0  0  0  0  0  0  0  0  0
   13.7764   39.5319   -8.4481 H   0  0  0  0  0  0  0  0  0  0  0  0
   15.2611   40.4452   -8.4837 H   0  0  0  0  0  0  0  0  0  0  0  0
   13.4829   39.7557  -10.5757 H   0  0  0  0  0  0  0  0  0  0  0  0
   12.9972   42.0962  -10.5043 H   0  0  0  0  0  0  0  0  0  0  0  0
   14.0431   45.5832  -11.0173 H   0  0  0  0  0  0  0  0  0  0  0  0
   13.1052   44.8080  -12.2869 H   0  0  0  0  0  0  0  0  0  0  0  0
   11.9442   43.7908   -8.4990 H   0  0  0  0  0  0  0  0  0  0  0  0
   13.5345   44.5428   -8.6277 H   0  0  0  0  0  0  0  0  0  0  0  0
   13.2541   42.9285   -9.3062 H   0  0  0  0  0  0  0  0  0  0  0  0
   16.1261   44.6608  -11.9773 H   0  0  0  0  0  0  0  0  0  0  0  0
   16.9378   40.5016  -11.2009 H   0  0  0  0  0  0  0  0  0  0  0  0
   20.0682   42.6935  -11.7650 H   0  0  0  0  0  0  0  0  0  0  0  0
   16.4562   41.9284   -6.6632 H   0  0  0  0  0  0  0  0  0  0  0  0
  1  2  1  0  0  0  0
  1 41  1  0  0  0  0
  1 42  1  0  0  0  0
  1 43  1  0  0  0  0
  2  3  1  0  0  0  0
  2 44  1  0  0  0  0
  2 45  1  0  0  0  0
  3  4  1  0  0  0  0
  3 46  1  0  0  0  0
  3 47  1  0  0  0  0
  4 37  1  0  0  0  0
  4  5  2  0  0  0  0
  5  6  1  0  0  0  0
  5 48  1  0  0  0  0
  6  7  1  0  0  0  0
  6 36  2  0  0  0  0
  7  8  1  0  0  0  0
  7 49  1  0  0  0  0
  7 50  1  0  0  0  0
  8  9  1  0  0  0  0
  8 51  1  0  0  0  0
  8 84  1  0  0  0  0
  9 10  1  0  0  0  0
  9 52  1  0  0  0  0
  9 53  1  0  0  0  0
 10 38  1  6  0  0  0
 10 11  1  0  0  0  0
 10 12  1  0  0  0  0
 11 54  1  0  0  0  0
 12 39  1  1  0  0  0
 12 35  1  0  0  0  0
 12 13  1  0  0  0  0
 13 14  1  0  0  0  0
 13 55  1  0  0  0  0
 13 56  1  0  0  0  0
 14 40  1  6  0  0  0
 14 15  1  0  0  0  0
 14 16  1  0  0  0  0
 15 57  1  0  0  0  0
 15 58  1  0  0  0  0
 15 59  1  0  0  0  0
 16 17  1  0  0  0  0
 16 60  1  0  0  0  0
 16 61  1  0  0  0  0
 17 18  1  0  0  0  0
 17 62  1  0  0  0  0
 17 63  1  0  0  0  0
 18 19  1  0  0  0  0
 18 64  1  0  0  0  0
 18 65  1  0  0  0  0
 19 20  1  0  0  0  0
 19 66  1  0  0  0  0
 19 67  1  0  0  0  0
 20 21  1  0  0  0  0
 20 68  1  0  0  0  0
 20 69  1  0  0  0  0
 21 22  1  0  0  0  0
 21 70  1  0  0  0  0
 21 71  1  0  0  0  0
 22 23  1  0  0  0  0
 22 72  1  0  0  0  0
 22 73  1  0  0  0  0
 23 24  1  0  0  0  0
 23 74  1  0  0  0  0
 24 32  1  0  0  0  0
 24 25  2  0  0  0  0
 25 26  1  0  0  0  0
 25 75  1  0  0  0  0
 26 27  1  0  0  0  0
 26 30  2  0  0  0  0
 27 28  1  0  0  0  0
 27 76  1  0  0  0  0
 27 77  1  0  0  0  0
 28 29  1  0  0  0  0
 29 78  1  0  0  0  0
 29 79  1  0  0  0  0
 29 80  1  0  0  0  0
 30 31  1  0  0  0  0
 30 81  1  0  0  0  0
 31 32  2  0  0  0  0
 31 33  1  0  0  0  0
 32 82  1  0  0  0  0
 33 34  2  0  0  0  0
 33 35  1  0  0  0  0
 35 83  1  0  0  0  0
 36 37  1  0  0  0  0
M  CHG  1   8   1
M  END
