BACE_58.smi:1
 OpenBabel09301811243D
Structure written by MMmdl.
 81 83  0  0  1  0  0  0  0  0999 V2000
   21.3898   38.0530   -9.1929 C   0  0  0  0  0  0  0  0  0  0  0  0
   20.8696   39.4924   -9.0968 C   0  0  2  0  0  0  0  0  0  0  0  0
   19.8866   39.6739   -7.9219 C   0  0  0  0  0  0  0  0  0  0  0  0
   20.4360   39.3617   -6.5129 C   0  0  0  0  0  0  0  0  0  0  0  0
   21.7188   40.1038   -6.0692 C   0  0  0  0  0  0  0  0  0  0  0  0
   21.8063   41.6053   -6.4071 C   0  0  0  0  0  0  0  0  0  0  0  0
   20.6157   42.4661   -5.9457 C   0  0  0  0  0  0  0  0  0  0  0  0
   20.5242   43.7710   -6.7503 C   0  0  0  0  0  0  0  0  0  0  0  0
   19.1490   44.4453   -6.6381 C   0  0  0  0  0  0  0  0  0  0  0  0
   19.0306   45.5952   -7.5244 N   0  0  0  0  0  0  0  0  0  0  0  0
   18.9854   45.4341   -8.9188 C   0  0  0  0  0  0  0  0  0  0  0  0
   18.6455   44.2111   -9.5516 C   0  0  0  0  0  0  0  0  0  0  0  0
   18.6257   44.1120  -10.9623 C   0  0  0  0  0  0  0  0  0  0  0  0
   18.9089   45.2545  -11.7392 C   0  0  0  0  0  0  0  0  0  0  0  0
   19.2511   46.4690  -11.1198 C   0  0  0  0  0  0  0  0  0  0  0  0
   19.2910   46.5556   -9.7166 C   0  0  0  0  0  0  0  0  0  0  0  0
   18.2106   42.8480  -11.6591 C   0  0  0  0  0  0  0  0  0  0  0  0
   17.2605   42.8842  -12.4401 O   0  0  0  0  0  0  0  0  0  0  0  0
   18.9090   41.7119  -11.4666 N   0  0  0  0  0  0  0  0  0  0  0  0
   20.1273   41.4520  -10.6883 C   0  0  1  0  0  0  0  0  0  0  0  0
   20.2187   39.9204  -10.4321 C   0  0  0  0  0  0  0  0  0  0  0  0
   21.3632   42.0689  -11.4128 C   0  0  2  0  0  0  0  0  0  0  0  0
   21.6597   41.3474  -12.5952 O   0  0  0  0  0  0  0  0  0  0  0  0
   22.6343   42.2621  -10.5552 C   0  0  0  0  0  0  0  0  0  0  0  0
   23.4857   41.0532  -10.4401 N   0  3  0  0  0  0  0  0  0  0  0  0
   24.6827   41.2300   -9.5884 C   0  0  0  0  0  0  0  0  0  0  0  0
   25.7716   41.9732  -10.2934 C   0  0  0  0  0  0  0  0  0  0  0  0
   25.9475   43.3102  -10.5157 C   0  0  0  0  0  0  0  0  0  0  0  0
   27.1701   43.4032  -11.2493 C   0  0  0  0  0  0  0  0  0  0  0  0
   27.7076   42.2077  -11.4496 N   0  0  0  0  0  0  0  0  0  0  0  0
   26.8603   41.3500  -10.8590 N   0  0  0  0  0  0  0  0  0  0  0  0
   27.8759   44.6377  -11.7816 C   0  0  0  0  0  0  0  0  0  0  0  0
   29.2822   44.7449  -11.1596 C   0  0  0  0  0  0  0  0  0  0  0  0
   27.0865   45.9121  -11.4143 C   0  0  0  0  0  0  0  0  0  0  0  0
   27.9809   44.5593  -13.3166 C   0  0  0  0  0  0  0  0  0  0  0  0
   21.7306   40.1171   -8.9068 H   0  0  0  0  0  0  0  0  0  0  0  0
   20.0134   41.9481   -9.7275 H   0  0  0  0  0  0  0  0  0  0  0  0
   21.0889   43.0742  -11.7312 H   0  0  0  0  0  0  0  0  0  0  0  0
   20.5697   37.3499   -9.3314 H   0  0  0  0  0  0  0  0  0  0  0  0
   21.9342   37.7605   -8.2968 H   0  0  0  0  0  0  0  0  0  0  0  0
   22.0788   37.9392  -10.0290 H   0  0  0  0  0  0  0  0  0  0  0  0
   19.4981   40.6896   -7.9303 H   0  0  0  0  0  0  0  0  0  0  0  0
   19.0138   39.0417   -8.0890 H   0  0  0  0  0  0  0  0  0  0  0  0
   19.6469   39.5725   -5.7892 H   0  0  0  0  0  0  0  0  0  0  0  0
   20.6098   38.2887   -6.4388 H   0  0  0  0  0  0  0  0  0  0  0  0
   21.8366   39.9725   -4.9929 H   0  0  0  0  0  0  0  0  0  0  0  0
   22.5797   39.6069   -6.5178 H   0  0  0  0  0  0  0  0  0  0  0  0
   22.7238   42.0145   -5.9821 H   0  0  0  0  0  0  0  0  0  0  0  0
   21.9278   41.7073   -7.4819 H   0  0  0  0  0  0  0  0  0  0  0  0
   19.6826   41.9219   -6.0789 H   0  0  0  0  0  0  0  0  0  0  0  0
   20.6822   42.6742   -4.8764 H   0  0  0  0  0  0  0  0  0  0  0  0
   21.3112   44.4565   -6.4349 H   0  0  0  0  0  0  0  0  0  0  0  0
   20.7181   43.5505   -7.7996 H   0  0  0  0  0  0  0  0  0  0  0  0
   18.3443   43.7369   -6.8378 H   0  0  0  0  0  0  0  0  0  0  0  0
   19.0013   44.7912   -5.6166 H   0  0  0  0  0  0  0  0  0  0  0  0
   19.3675   46.4781   -7.1682 H   0  0  0  0  0  0  0  0  0  0  0  0
   18.3789   43.3450   -8.9647 H   0  0  0  0  0  0  0  0  0  0  0  0
   18.8596   45.2021  -12.8173 H   0  0  0  0  0  0  0  0  0  0  0  0
   19.4752   47.3378  -11.7211 H   0  0  0  0  0  0  0  0  0  0  0  0
   19.5529   47.4956   -9.2547 H   0  0  0  0  0  0  0  0  0  0  0  0
   18.5628   40.9143  -11.9794 H   0  0  0  0  0  0  0  0  0  0  0  0
   20.7315   39.4405  -11.2657 H   0  0  0  0  0  0  0  0  0  0  0  0
   19.2188   39.4832  -10.4541 H   0  0  0  0  0  0  0  0  0  0  0  0
   22.5213   41.5754  -12.9268 H   0  0  0  0  0  0  0  0  0  0  0  0
   23.2335   43.0473  -11.0174 H   0  0  0  0  0  0  0  0  0  0  0  0
   22.3615   42.6318   -9.5657 H   0  0  0  0  0  0  0  0  0  0  0  0
   22.9305   40.3032  -10.0538 H   0  0  0  0  0  0  0  0  0  0  0  0
   24.4102   41.7460   -8.6667 H   0  0  0  0  0  0  0  0  0  0  0  0
   25.0499   40.2549   -9.2714 H   0  0  0  0  0  0  0  0  0  0  0  0
   25.2975   44.1126  -10.2008 H   0  0  0  0  0  0  0  0  0  0  0  0
   27.0642   40.3535  -10.8399 H   0  0  0  0  0  0  0  0  0  0  0  0
   29.8048   45.6345  -11.5090 H   0  0  0  0  0  0  0  0  0  0  0  0
   29.9007   43.8830  -11.4187 H   0  0  0  0  0  0  0  0  0  0  0  0
   29.2297   44.7966  -10.0728 H   0  0  0  0  0  0  0  0  0  0  0  0
   26.9879   46.0246  -10.3338 H   0  0  0  0  0  0  0  0  0  0  0  0
   26.0814   45.8974  -11.8376 H   0  0  0  0  0  0  0  0  0  0  0  0
   27.5845   46.8068  -11.7889 H   0  0  0  0  0  0  0  0  0  0  0  0
   28.4793   45.4368  -13.7269 H   0  0  0  0  0  0  0  0  0  0  0  0
   26.9937   44.4943  -13.7728 H   0  0  0  0  0  0  0  0  0  0  0  0
   28.5500   43.6856  -13.6350 H   0  0  0  0  0  0  0  0  0  0  0  0
   23.7822   40.7741  -11.3709 H   0  0  0  0  0  0  0  0  0  0  0  0
  1  2  1  0  0  0  0
  1 39  1  0  0  0  0
  1 40  1  0  0  0  0
  1 41  1  0  0  0  0
  2 36  1  1  0  0  0
  2 21  1  0  0  0  0
  2  3  1  0  0  0  0
  3  4  1  0  0  0  0
  3 42  1  0  0  0  0
  3 43  1  0  0  0  0
  4  5  1  0  0  0  0
  4 44  1  0  0  0  0
  4 45  1  0  0  0  0
  5  6  1  0  0  0  0
  5 46  1  0  0  0  0
  5 47  1  0  0  0  0
  6  7  1  0  0  0  0
  6 48  1  0  0  0  0
  6 49  1  0  0  0  0
  7  8  1  0  0  0  0
  7 50  1  0  0  0  0
  7 51  1  0  0  0  0
  8  9  1  0  0  0  0
  8 52  1  0  0  0  0
  8 53  1  0  0  0  0
  9 10  1  0  0  0  0
  9 54  1  0  0  0  0
  9 55  1  0  0  0  0
 10 11  1  0  0  0  0
 10 56  1  0  0  0  0
 11 16  1  0  0  0  0
 11 12  2  0  0  0  0
 12 13  1  0  0  0  0
 12 57  1  0  0  0  0
 13 14  2  0  0  0  0
 13 17  1  0  0  0  0
 14 15  1  0  0  0  0
 14 58  1  0  0  0  0
 15 16  2  0  0  0  0
 15 59  1  0  0  0  0
 16 60  1  0  0  0  0
 17 18  2  0  0  0  0
 17 19  1  0  0  0  0
 19 20  1  0  0  0  0
 19 61  1  0  0  0  0
 20 37  1  1  0  0  0
 20 21  1  0  0  0  0
 20 22  1  0  0  0  0
 21 62  1  0  0  0  0
 21 63  1  0  0  0  0
 22 38  1  6  0  0  0
 22 23  1  0  0  0  0
 22 24  1  0  0  0  0
 23 64  1  0  0  0  0
 24 25  1  0  0  0  0
 24 65  1  0  0  0  0
 24 66  1  0  0  0  0
 25 26  1  0  0  0  0
 25 67  1  0  0  0  0
 25 81  1  0  0  0  0
 26 68  1  0  0  0  0
 26 69  1  0  0  0  0
 26 27  1  0  0  0  0
 27 31  1  0  0  0  0
 27 28  2  0  0  0  0
 28 29  1  0  0  0  0
 28 70  1  0  0  0  0
 29 32  1  0  0  0  0
 29 30  2  0  0  0  0
 30 31  1  0  0  0  0
 31 71  1  0  0  0  0
 32 33  1  0  0  0  0
 32 34  1  0  0  0  0
 32 35  1  0  0  0  0
 33 72  1  0  0  0  0
 33 73  1  0  0  0  0
 33 74  1  0  0  0  0
 34 75  1  0  0  0  0
 34 76  1  0  0  0  0
 34 77  1  0  0  0  0
 35 78  1  0  0  0  0
 35 79  1  0  0  0  0
 35 80  1  0  0  0  0
M  CHG  1  25   1
M  END
