BACE_149.smi:1
 OpenBabel09301811243D
Structure written by MMmdl.
 96 96  0  0  1  0  0  0  0  0999 V2000
   12.5794   44.4746  -11.6288 C   0  0  0  0  0  0  0  0  0  0  0  0
   14.0640   44.1364  -11.4489 C   0  0  0  0  0  0  0  0  0  0  0  0
   14.3303   43.0839  -10.3607 C   0  0  0  0  0  0  0  0  0  0  0  0
   13.7548   41.6940  -10.6799 C   0  0  0  0  0  0  0  0  0  0  0  0
   14.0989   40.7360   -9.6399 N   0  0  0  0  0  0  0  0  0  0  0  0
   15.2596   40.0657   -9.5511 C   0  0  0  0  0  0  0  0  0  0  0  0
   16.0894   40.0668  -10.4627 O   0  0  0  0  0  0  0  0  0  0  0  0
   15.5778   39.3260   -8.2332 C   0  0  2  0  0  0  0  0  0  0  0  0
   14.5142   39.5285   -7.1417 C   0  0  0  0  0  0  0  0  0  0  0  0
   16.9616   39.7571   -7.6953 C   0  0  0  0  0  0  0  0  0  0  0  0
   18.0942   38.7547   -7.9863 C   0  0  2  0  0  0  0  0  0  0  0  0
   18.0601   37.7501   -6.9940 O   0  0  0  0  0  0  0  0  0  0  0  0
   19.5178   39.3717   -7.9935 C   0  0  2  0  0  0  0  0  0  0  0  0
   19.7757   40.2770   -6.7631 C   0  0  0  0  0  0  0  0  0  0  0  0
   21.1991   40.8429   -6.5661 C   0  0  2  0  0  0  0  0  0  0  0  0
   22.2461   39.7307   -6.3631 C   0  0  0  0  0  0  0  0  0  0  0  0
   21.1923   41.8301   -5.3704 C   0  0  0  0  0  0  0  0  0  0  0  0
   22.4258   42.7454   -5.2764 C   0  0  0  0  0  0  0  0  0  0  0  0
   22.3981   43.9136   -6.2769 C   0  0  0  0  0  0  0  0  0  0  0  0
   23.7639   44.5988   -6.4732 C   0  0  0  0  0  0  0  0  0  0  0  0
   24.8263   43.7569   -7.2175 C   0  0  0  0  0  0  0  0  0  0  0  0
   24.3840   43.1609   -8.5700 C   0  0  0  0  0  0  0  0  0  0  0  0
   24.0157   44.2391   -9.6033 C   0  0  0  0  0  0  0  0  0  0  0  0
   23.4496   43.7214  -10.9432 C   0  0  2  0  0  0  0  0  0  0  0  0
   23.2499   44.8838  -11.7986 N   0  0  0  0  0  0  0  0  0  0  0  0
   24.0600   45.2862  -12.8401 C   0  0  0  0  0  0  0  0  0  0  0  0
   25.0351   44.6811  -13.2823 O   0  0  0  0  0  0  0  0  0  0  0  0
   23.5763   46.4662  -13.2977 O   0  0  0  0  0  0  0  0  0  0  0  0
   24.0558   47.1465  -14.4645 C   0  0  0  0  0  0  0  0  0  0  0  0
   23.3072   48.4901  -14.4516 C   0  0  0  0  0  0  0  0  0  0  0  0
   25.5736   47.4340  -14.4136 C   0  0  0  0  0  0  0  0  0  0  0  0
   23.6590   46.3640  -15.7317 C   0  0  0  0  0  0  0  0  0  0  0  0
   22.1033   42.9947  -10.8125 C   0  0  0  0  0  0  0  0  0  0  0  0
   21.1639   43.5528  -10.2444 O   0  0  0  0  0  0  0  0  0  0  0  0
   22.0030   41.7657  -11.3457 N   0  0  0  0  0  0  0  0  0  0  0  0
   20.7949   40.9420  -11.2802 C   0  0  1  0  0  0  0  0  0  0  0  0
   20.7784   39.9960  -12.4898 C   0  0  0  0  0  0  0  0  0  0  0  0
   20.8166   40.0714  -10.0147 C   0  0  0  0  0  0  0  0  0  0  0  0
   21.7976   39.3713   -9.7639 O   0  0  0  0  0  0  0  0  0  0  0  0
   19.7205   40.1130   -9.2394 N   0  0  0  0  0  0  0  0  0  0  0  0
   15.5933   38.2590   -8.4626 H   0  0  0  0  0  0  0  0  0  0  0  0
   17.9235   38.2705   -8.9495 H   0  0  0  0  0  0  0  0  0  0  0  0
   20.2144   38.5322   -7.9705 H   0  0  0  0  0  0  0  0  0  0  0  0
   21.4632   41.3931   -7.4673 H   0  0  0  0  0  0  0  0  0  0  0  0
   24.1745   43.0448  -11.4006 H   0  0  0  0  0  0  0  0  0  0  0  0
   19.8976   41.5646  -11.3006 H   0  0  0  0  0  0  0  0  0  0  0  0
   12.4610   45.3373  -12.2855 H   0  0  0  0  0  0  0  0  0  0  0  0
   12.1033   44.6967  -10.6731 H   0  0  0  0  0  0  0  0  0  0  0  0
   12.0406   43.6432  -12.0845 H   0  0  0  0  0  0  0  0  0  0  0  0
   14.6039   45.0470  -11.1898 H   0  0  0  0  0  0  0  0  0  0  0  0
   14.4766   43.8007  -12.3996 H   0  0  0  0  0  0  0  0  0  0  0  0
   13.9222   43.4329   -9.4133 H   0  0  0  0  0  0  0  0  0  0  0  0
   15.4061   43.0018  -10.2098 H   0  0  0  0  0  0  0  0  0  0  0  0
   14.1083   41.3313  -11.6432 H   0  0  0  0  0  0  0  0  0  0  0  0
   12.6688   41.7502  -10.7336 H   0  0  0  0  0  0  0  0  0  0  0  0
   13.4330   40.6477   -8.8728 H   0  0  0  0  0  0  0  0  0  0  0  0
   14.7491   38.9506   -6.2487 H   0  0  0  0  0  0  0  0  0  0  0  0
   13.5320   39.2071   -7.4753 H   0  0  0  0  0  0  0  0  0  0  0  0
   14.4587   40.5730   -6.8375 H   0  0  0  0  0  0  0  0  0  0  0  0
   16.9085   39.9234   -6.6178 H   0  0  0  0  0  0  0  0  0  0  0  0
   17.2214   40.7334   -8.1068 H   0  0  0  0  0  0  0  0  0  0  0  0
   17.1700   37.4279   -6.8504 H   0  0  0  0  0  0  0  0  0  0  0  0
   19.0999   41.1273   -6.8399 H   0  0  0  0  0  0  0  0  0  0  0  0
   19.4879   39.7425   -5.8571 H   0  0  0  0  0  0  0  0  0  0  0  0
   23.2534   40.1404   -6.3071 H   0  0  0  0  0  0  0  0  0  0  0  0
   22.2536   39.0176   -7.1850 H   0  0  0  0  0  0  0  0  0  0  0  0
   22.0585   39.1698   -5.4476 H   0  0  0  0  0  0  0  0  0  0  0  0
   20.3021   42.4603   -5.4057 H   0  0  0  0  0  0  0  0  0  0  0  0
   21.1029   41.2577   -4.4465 H   0  0  0  0  0  0  0  0  0  0  0  0
   23.3266   42.1521   -5.3951 H   0  0  0  0  0  0  0  0  0  0  0  0
   22.4877   43.1592   -4.2692 H   0  0  0  0  0  0  0  0  0  0  0  0
   22.0067   43.5937   -7.2410 H   0  0  0  0  0  0  0  0  0  0  0  0
   21.6806   44.6527   -5.9171 H   0  0  0  0  0  0  0  0  0  0  0  0
   24.1608   44.8915   -5.4994 H   0  0  0  0  0  0  0  0  0  0  0  0
   23.6108   45.5348   -7.0110 H   0  0  0  0  0  0  0  0  0  0  0  0
   25.7115   44.3738   -7.3738 H   0  0  0  0  0  0  0  0  0  0  0  0
   25.1560   42.9505   -6.5683 H   0  0  0  0  0  0  0  0  0  0  0  0
   23.5555   42.4699   -8.4179 H   0  0  0  0  0  0  0  0  0  0  0  0
   25.1958   42.5523   -8.9714 H   0  0  0  0  0  0  0  0  0  0  0  0
   23.2849   44.9229   -9.1712 H   0  0  0  0  0  0  0  0  0  0  0  0
   24.9032   44.8422   -9.7982 H   0  0  0  0  0  0  0  0  0  0  0  0
   22.4698   45.4887  -11.5894 H   0  0  0  0  0  0  0  0  0  0  0  0
   23.5596   49.0949  -15.3235 H   0  0  0  0  0  0  0  0  0  0  0  0
   23.5542   49.0724  -13.5630 H   0  0  0  0  0  0  0  0  0  0  0  0
   22.2265   48.3441  -14.4562 H   0  0  0  0  0  0  0  0  0  0  0  0
   25.8694   48.1072  -15.2185 H   0  0  0  0  0  0  0  0  0  0  0  0
   26.1727   46.5301  -14.5232 H   0  0  0  0  0  0  0  0  0  0  0  0
   25.8535   47.9071  -13.4715 H   0  0  0  0  0  0  0  0  0  0  0  0
   24.0172   46.8630  -16.6319 H   0  0  0  0  0  0  0  0  0  0  0  0
   22.5748   46.2799  -15.8182 H   0  0  0  0  0  0  0  0  0  0  0  0
   24.0600   45.3522  -15.7313 H   0  0  0  0  0  0  0  0  0  0  0  0
   22.8144   41.3601  -11.7984 H   0  0  0  0  0  0  0  0  0  0  0  0
   19.9034   39.3488  -12.4410 H   0  0  0  0  0  0  0  0  0  0  0  0
   21.6603   39.3566  -12.5299 H   0  0  0  0  0  0  0  0  0  0  0  0
   20.7266   40.5510  -13.4254 H   0  0  0  0  0  0  0  0  0  0  0  0
   18.9611   40.7096   -9.5313 H   0  0  0  0  0  0  0  0  0  0  0  0
  1  2  1  0  0  0  0
  1 47  1  0  0  0  0
  1 48  1  0  0  0  0
  1 49  1  0  0  0  0
  2  3  1  0  0  0  0
  2 50  1  0  0  0  0
  2 51  1  0  0  0  0
  3  4  1  0  0  0  0
  3 52  1  0  0  0  0
  3 53  1  0  0  0  0
  4  5  1  0  0  0  0
  4 54  1  0  0  0  0
  4 55  1  0  0  0  0
  5  6  1  0  0  0  0
  5 56  1  0  0  0  0
  6  7  2  0  0  0  0
  6  8  1  0  0  0  0
  8 41  1  6  0  0  0
  8  9  1  0  0  0  0
  8 10  1  0  0  0  0
  9 57  1  0  0  0  0
  9 58  1  0  0  0  0
  9 59  1  0  0  0  0
 10 11  1  0  0  0  0
 10 60  1  0  0  0  0
 10 61  1  0  0  0  0
 11 42  1  6  0  0  0
 11 12  1  0  0  0  0
 11 13  1  0  0  0  0
 12 62  1  0  0  0  0
 13 43  1  1  0  0  0
 13 40  1  0  0  0  0
 13 14  1  0  0  0  0
 14 15  1  0  0  0  0
 14 63  1  0  0  0  0
 14 64  1  0  0  0  0
 15 44  1  6  0  0  0
 15 16  1  0  0  0  0
 15 17  1  0  0  0  0
 16 65  1  0  0  0  0
 16 66  1  0  0  0  0
 16 67  1  0  0  0  0
 17 18  1  0  0  0  0
 17 68  1  0  0  0  0
 17 69  1  0  0  0  0
 18 19  1  0  0  0  0
 18 70  1  0  0  0  0
 18 71  1  0  0  0  0
 19 20  1  0  0  0  0
 19 72  1  0  0  0  0
 19 73  1  0  0  0  0
 20 21  1  0  0  0  0
 20 74  1  0  0  0  0
 20 75  1  0  0  0  0
 21 22  1  0  0  0  0
 21 76  1  0  0  0  0
 21 77  1  0  0  0  0
 22 23  1  0  0  0  0
 22 78  1  0  0  0  0
 22 79  1  0  0  0  0
 23 24  1  0  0  0  0
 23 80  1  0  0  0  0
 23 81  1  0  0  0  0
 24 45  1  6  0  0  0
 24 25  1  0  0  0  0
 24 33  1  0  0  0  0
 25 26  1  0  0  0  0
 25 82  1  0  0  0  0
 26 27  2  0  0  0  0
 26 28  1  0  0  0  0
 28 29  1  0  0  0  0
 29 30  1  0  0  0  0
 29 31  1  0  0  0  0
 29 32  1  0  0  0  0
 30 83  1  0  0  0  0
 30 84  1  0  0  0  0
 30 85  1  0  0  0  0
 31 86  1  0  0  0  0
 31 87  1  0  0  0  0
 31 88  1  0  0  0  0
 32 89  1  0  0  0  0
 32 90  1  0  0  0  0
 32 91  1  0  0  0  0
 33 34  2  0  0  0  0
 33 35  1  0  0  0  0
 35 36  1  0  0  0  0
 35 92  1  0  0  0  0
 36 46  1  6  0  0  0
 36 37  1  0  0  0  0
 36 38  1  0  0  0  0
 37 93  1  0  0  0  0
 37 94  1  0  0  0  0
 37 95  1  0  0  0  0
 38 39  2  0  0  0  0
 38 40  1  0  0  0  0
 40 96  1  0  0  0  0
M  END
