BACE_72.smi:1
 OpenBabel09301811243D
Structure written by MMmdl.
 80 82  0  0  1  0  0  0  0  0999 V2000
   30.5934   41.6158  -13.6408 C   0  0  0  0  0  0  0  0  0  0  0  0
   30.5764   41.9396  -12.1380 C   0  0  0  0  0  0  0  0  0  0  0  0
   29.3934   41.4884  -11.4875 O   0  0  0  0  0  0  0  0  0  0  0  0
   28.2259   42.2143  -11.6081 C   0  0  0  0  0  0  0  0  0  0  0  0
   27.1307   41.7987  -10.8263 C   0  0  0  0  0  0  0  0  0  0  0  0
   25.8970   42.4840  -10.8609 C   0  0  0  0  0  0  0  0  0  0  0  0
   24.7974   42.0516   -9.9014 C   0  0  0  0  0  0  0  0  0  0  0  0
   23.9751   40.9500  -10.4400 N   0  3  0  0  0  0  0  0  0  0  0  0
   22.5402   41.0412  -10.0941 C   0  0  0  0  0  0  0  0  0  0  0  0
   21.8482   39.6698   -9.9524 C   0  0  1  0  0  0  0  0  0  0  0  0
   22.4600   39.0432   -8.8418 O   0  0  0  0  0  0  0  0  0  0  0  0
   20.3167   39.7773   -9.6895 C   0  0  2  0  0  0  0  0  0  0  0  0
   19.6715   38.3897   -9.3998 C   0  0  0  0  0  0  0  0  0  0  0  0
   18.3033   38.3578   -8.6688 C   0  0  2  0  0  0  0  0  0  0  0  0
   17.1054   38.6252   -9.5907 C   0  0  0  0  0  0  0  0  0  0  0  0
   18.2232   39.1991   -7.3732 C   0  0  0  0  0  0  0  0  0  0  0  0
   19.2544   38.8138   -6.2950 C   0  0  0  0  0  0  0  0  0  0  0  0
   20.4853   39.5227   -6.4096 O   0  0  0  0  0  0  0  0  0  0  0  0
   20.4609   40.7883   -5.7637 C   0  0  0  0  0  0  0  0  0  0  0  0
   21.7766   41.5424   -5.9840 C   0  0  0  0  0  0  0  0  0  0  0  0
   21.8222   42.9332   -5.3152 C   0  0  0  0  0  0  0  0  0  0  0  0
   20.6598   43.8850   -5.6709 C   0  0  0  0  0  0  0  0  0  0  0  0
   20.5914   44.1843   -7.0996 N   0  0  0  0  0  0  0  0  0  0  0  0
   19.4962   43.6636   -7.8052 C   0  0  0  0  0  0  0  0  0  0  0  0
   19.7254   42.9585   -9.0030 C   0  0  0  0  0  0  0  0  0  0  0  0
   18.6629   42.3298   -9.6898 C   0  0  0  0  0  0  0  0  0  0  0  0
   17.3444   42.4907   -9.2131 C   0  0  0  0  0  0  0  0  0  0  0  0
   17.1011   43.2301   -8.0406 C   0  0  0  0  0  0  0  0  0  0  0  0
   18.1724   43.8113   -7.3383 C   0  0  0  0  0  0  0  0  0  0  0  0
   18.9104   41.5192  -10.9297 C   0  0  0  0  0  0  0  0  0  0  0  0
   18.3912   41.8564  -11.9921 O   0  0  0  0  0  0  0  0  0  0  0  0
   19.6666   40.4057  -10.8493 N   0  0  0  0  0  0  0  0  0  0  0  0
   25.7298   43.5813  -11.7490 C   0  0  0  0  0  0  0  0  0  0  0  0
   26.8307   44.0054  -12.5225 C   0  0  0  0  0  0  0  0  0  0  0  0
   28.0697   43.3464  -12.4410 C   0  0  0  0  0  0  0  0  0  0  0  0
   24.4036   44.3311  -11.8720 C   0  0  0  0  0  0  0  0  0  0  0  0
   24.4018   45.1604  -12.9163 F   0  0  0  0  0  0  0  0  0  0  0  0
   23.3963   43.4747  -12.0383 F   0  0  0  0  0  0  0  0  0  0  0  0
   24.1846   45.0497  -10.7707 F   0  0  0  0  0  0  0  0  0  0  0  0
   22.0221   39.0586  -10.8388 H   0  0  0  0  0  0  0  0  0  0  0  0
   20.1992   40.3914   -8.8011 H   0  0  0  0  0  0  0  0  0  0  0  0
   18.1724   37.3208   -8.3535 H   0  0  0  0  0  0  0  0  0  0  0  0
   31.5462   41.9001  -14.0861 H   0  0  0  0  0  0  0  0  0  0  0  0
   29.8092   42.1252  -14.1988 H   0  0  0  0  0  0  0  0  0  0  0  0
   30.4570   40.5507  -13.8127 H   0  0  0  0  0  0  0  0  0  0  0  0
   31.4038   41.4111  -11.6611 H   0  0  0  0  0  0  0  0  0  0  0  0
   30.7492   43.0008  -11.9536 H   0  0  0  0  0  0  0  0  0  0  0  0
   27.2587   40.9507  -10.1684 H   0  0  0  0  0  0  0  0  0  0  0  0
   25.2418   41.7177   -8.9624 H   0  0  0  0  0  0  0  0  0  0  0  0
   24.1816   42.9111   -9.6395 H   0  0  0  0  0  0  0  0  0  0  0  0
   24.0600   40.9420  -11.4542 H   0  0  0  0  0  0  0  0  0  0  0  0
   22.4375   41.5747   -9.1533 H   0  0  0  0  0  0  0  0  0  0  0  0
   22.0537   41.6454  -10.8579 H   0  0  0  0  0  0  0  0  0  0  0  0
   23.2080   38.5418   -9.1409 H   0  0  0  0  0  0  0  0  0  0  0  0
   19.6051   37.8164  -10.3250 H   0  0  0  0  0  0  0  0  0  0  0  0
   20.3431   37.8047   -8.7730 H   0  0  0  0  0  0  0  0  0  0  0  0
   17.0899   39.6434   -9.9701 H   0  0  0  0  0  0  0  0  0  0  0  0
   16.1647   38.4610   -9.0629 H   0  0  0  0  0  0  0  0  0  0  0  0
   17.1176   37.9459  -10.4399 H   0  0  0  0  0  0  0  0  0  0  0  0
   18.2562   40.2654   -7.5867 H   0  0  0  0  0  0  0  0  0  0  0  0
   17.2363   39.0323   -6.9382 H   0  0  0  0  0  0  0  0  0  0  0  0
   18.8271   38.9503   -5.2998 H   0  0  0  0  0  0  0  0  0  0  0  0
   19.4711   37.7501   -6.3763 H   0  0  0  0  0  0  0  0  0  0  0  0
   19.6600   41.3828   -6.1854 H   0  0  0  0  0  0  0  0  0  0  0  0
   20.2691   40.6666   -4.6965 H   0  0  0  0  0  0  0  0  0  0  0  0
   22.6038   40.9355   -5.6130 H   0  0  0  0  0  0  0  0  0  0  0  0
   21.9405   41.6522   -7.0515 H   0  0  0  0  0  0  0  0  0  0  0  0
   21.8320   42.7970   -4.2336 H   0  0  0  0  0  0  0  0  0  0  0  0
   22.7709   43.4124   -5.5587 H   0  0  0  0  0  0  0  0  0  0  0  0
   19.7257   43.4674   -5.2963 H   0  0  0  0  0  0  0  0  0  0  0  0
   20.7965   44.8273   -5.1390 H   0  0  0  0  0  0  0  0  0  0  0  0
   21.4807   44.1119   -7.5698 H   0  0  0  0  0  0  0  0  0  0  0  0
   20.7274   42.8835   -9.3852 H   0  0  0  0  0  0  0  0  0  0  0  0
   16.5155   42.0319   -9.7337 H   0  0  0  0  0  0  0  0  0  0  0  0
   16.0922   43.3361   -7.6644 H   0  0  0  0  0  0  0  0  0  0  0  0
   17.9686   44.3726   -6.4403 H   0  0  0  0  0  0  0  0  0  0  0  0
   19.7430   39.8901  -11.7134 H   0  0  0  0  0  0  0  0  0  0  0  0
   26.7415   44.8538  -13.1853 H   0  0  0  0  0  0  0  0  0  0  0  0
   28.8799   43.7294  -13.0395 H   0  0  0  0  0  0  0  0  0  0  0  0
   24.3454   40.0733  -10.0858 H   0  0  0  0  0  0  0  0  0  0  0  0
  1  2  1  0  0  0  0
  1 43  1  0  0  0  0
  1 44  1  0  0  0  0
  1 45  1  0  0  0  0
  2  3  1  0  0  0  0
  2 46  1  0  0  0  0
  2 47  1  0  0  0  0
  3  4  1  0  0  0  0
  4 35  1  0  0  0  0
  4  5  2  0  0  0  0
  5  6  1  0  0  0  0
  5 48  1  0  0  0  0
  6  7  1  0  0  0  0
  6 33  2  0  0  0  0
  7  8  1  0  0  0  0
  7 49  1  0  0  0  0
  7 50  1  0  0  0  0
  8  9  1  0  0  0  0
  8 51  1  0  0  0  0
  8 80  1  0  0  0  0
  9 10  1  0  0  0  0
  9 52  1  0  0  0  0
  9 53  1  0  0  0  0
 10 40  1  6  0  0  0
 10 11  1  0  0  0  0
 10 12  1  0  0  0  0
 11 54  1  0  0  0  0
 12 41  1  1  0  0  0
 12 32  1  0  0  0  0
 12 13  1  0  0  0  0
 13 14  1  0  0  0  0
 13 55  1  0  0  0  0
 13 56  1  0  0  0  0
 14 42  1  1  0  0  0
 14 15  1  0  0  0  0
 14 16  1  0  0  0  0
 15 57  1  0  0  0  0
 15 58  1  0  0  0  0
 15 59  1  0  0  0  0
 16 17  1  0  0  0  0
 16 60  1  0  0  0  0
 16 61  1  0  0  0  0
 17 18  1  0  0  0  0
 17 62  1  0  0  0  0
 17 63  1  0  0  0  0
 18 19  1  0  0  0  0
 19 20  1  0  0  0  0
 19 64  1  0  0  0  0
 19 65  1  0  0  0  0
 20 21  1  0  0  0  0
 20 66  1  0  0  0  0
 20 67  1  0  0  0  0
 21 22  1  0  0  0  0
 21 68  1  0  0  0  0
 21 69  1  0  0  0  0
 22 23  1  0  0  0  0
 22 70  1  0  0  0  0
 22 71  1  0  0  0  0
 23 24  1  0  0  0  0
 23 72  1  0  0  0  0
 24 29  1  0  0  0  0
 24 25  2  0  0  0  0
 25 26  1  0  0  0  0
 25 73  1  0  0  0  0
 26 27  2  0  0  0  0
 26 30  1  0  0  0  0
 27 28  1  0  0  0  0
 27 74  1  0  0  0  0
 28 29  2  0  0  0  0
 28 75  1  0  0  0  0
 29 76  1  0  0  0  0
 30 31  2  0  0  0  0
 30 32  1  0  0  0  0
 32 77  1  0  0  0  0
 33 34  1  0  0  0  0
 33 36  1  0  0  0  0
 34 35  2  0  0  0  0
 34 78  1  0  0  0  0
 35 79  1  0  0  0  0
 36 37  1  0  0  0  0
 36 38  1  0  0  0  0
 36 39  1  0  0  0  0
M  CHG  1   8   1
M  END
