BACE_45.smi:1
 OpenBabel09301811243D
Structure written by MMmdl.
 81 83  0  0  1  0  0  0  0  0999 V2000
   22.6636   40.4188   -3.7474 C   0  0  0  0  0  0  0  0  0  0  0  0
   22.0342   41.7321   -3.2666 C   0  0  0  0  0  0  0  0  0  0  0  0
   20.7178   41.4937   -2.4963 C   0  0  0  0  0  0  0  0  0  0  0  0
   21.8571   42.6982   -4.4308 C   0  0  0  0  0  0  0  0  0  0  0  0
   22.8018   43.7084   -4.6792 C   0  0  0  0  0  0  0  0  0  0  0  0
   22.6367   44.6086   -5.7496 C   0  0  0  0  0  0  0  0  0  0  0  0
   21.5069   44.5057   -6.5835 C   0  0  0  0  0  0  0  0  0  0  0  0
   20.5517   43.4943   -6.3499 C   0  0  0  0  0  0  0  0  0  0  0  0
   19.3265   43.3923   -7.2390 C   0  0  0  0  0  0  0  0  0  0  0  0
   18.8605   41.9979   -7.3417 N   0  3  0  0  0  0  0  0  0  0  0  0
   17.7892   41.7703   -8.3248 C   0  0  0  0  0  0  0  0  0  0  0  0
   16.4025   42.1559   -7.7852 C   0  0  1  0  0  0  0  0  0  0  0  0
   16.1496   43.5216   -8.0401 O   0  0  0  0  0  0  0  0  0  0  0  0
   15.1764   41.2798   -8.1899 C   0  0  2  0  0  0  0  0  0  0  0  0
   15.2068   39.7857   -7.7580 C   0  0  0  0  0  0  0  0  0  0  0  0
   15.9912   38.8070   -8.6272 C   0  0  0  0  0  0  0  0  0  0  0  0
   15.3419   38.3937   -9.9366 C   0  0  0  0  0  0  0  0  0  0  0  0
   17.1513   38.2724   -8.1948 C   0  0  0  0  0  0  0  0  0  0  0  0
   18.0391   37.2760   -8.9180 C   0  0  0  0  0  0  0  0  0  0  0  0
   19.4875   37.7850   -9.0405 C   0  0  0  0  0  0  0  0  0  0  0  0
   19.6698   38.8463  -10.1386 C   0  0  0  0  0  0  0  0  0  0  0  0
   21.0862   39.4512  -10.1696 C   0  0  0  0  0  0  0  0  0  0  0  0
   21.1519   40.9136  -10.6575 C   0  0  0  0  0  0  0  0  0  0  0  0
   20.8071   41.1439  -12.1428 C   0  0  0  0  0  0  0  0  0  0  0  0
   19.3948   40.9445  -12.4396 N   0  0  0  0  0  0  0  0  0  0  0  0
   18.4340   41.8443  -11.9673 C   0  0  0  0  0  0  0  0  0  0  0  0
   17.1695   41.3506  -11.5816 C   0  0  0  0  0  0  0  0  0  0  0  0
   16.2019   42.2517  -11.0856 C   0  0  0  0  0  0  0  0  0  0  0  0
   16.5272   43.6241  -11.0662 C   0  0  0  0  0  0  0  0  0  0  0  0
   17.8157   44.0197  -11.4736 C   0  0  0  0  0  0  0  0  0  0  0  0
   18.2272   45.4750  -11.4409 C   0  0  0  0  0  0  0  0  0  0  0  0
   18.7545   43.1538  -11.9053 N   0  0  0  0  0  0  0  0  0  0  0  0
   14.8186   41.7911  -10.7325 C   0  0  0  0  0  0  0  0  0  0  0  0
   13.9910   41.7160  -11.6390 O   0  0  0  0  0  0  0  0  0  0  0  0
   14.4626   41.5222   -9.4612 N   0  0  0  0  0  0  0  0  0  0  0  0
   20.7497   42.5893   -5.2855 C   0  0  0  0  0  0  0  0  0  0  0  0
   16.4600   42.0761   -6.6989 H   0  0  0  0  0  0  0  0  0  0  0  0
   14.4371   41.6788   -7.4963 H   0  0  0  0  0  0  0  0  0  0  0  0
   23.6257   40.5985   -4.2298 H   0  0  0  0  0  0  0  0  0  0  0  0
   22.0211   39.8973   -4.4552 H   0  0  0  0  0  0  0  0  0  0  0  0
   22.8510   39.7497   -2.9070 H   0  0  0  0  0  0  0  0  0  0  0  0
   22.7316   42.1955   -2.5685 H   0  0  0  0  0  0  0  0  0  0  0  0
   20.2987   42.4300   -2.1322 H   0  0  0  0  0  0  0  0  0  0  0  0
   20.8608   40.8438   -1.6399 H   0  0  0  0  0  0  0  0  0  0  0  0
   19.9609   41.0074   -3.1084 H   0  0  0  0  0  0  0  0  0  0  0  0
   23.6598   43.7927   -4.0400 H   0  0  0  0  0  0  0  0  0  0  0  0
   23.3741   45.3751   -5.9264 H   0  0  0  0  0  0  0  0  0  0  0  0
   21.3820   45.2020   -7.3980 H   0  0  0  0  0  0  0  0  0  0  0  0
   18.5346   44.0211   -6.8322 H   0  0  0  0  0  0  0  0  0  0  0  0
   19.5678   43.7738   -8.2308 H   0  0  0  0  0  0  0  0  0  0  0  0
   19.6532   41.4288   -7.5959 H   0  0  0  0  0  0  0  0  0  0  0  0
   18.0520   42.2822   -9.2420 H   0  0  0  0  0  0  0  0  0  0  0  0
   17.8105   40.7153   -8.5439 H   0  0  0  0  0  0  0  0  0  0  0  0
   15.5701   43.8121   -7.3482 H   0  0  0  0  0  0  0  0  0  0  0  0
   15.5869   39.7302   -6.7347 H   0  0  0  0  0  0  0  0  0  0  0  0
   14.1849   39.4069   -7.6886 H   0  0  0  0  0  0  0  0  0  0  0  0
   14.4235   38.9518  -10.1200 H   0  0  0  0  0  0  0  0  0  0  0  0
   15.0846   37.3332   -9.9005 H   0  0  0  0  0  0  0  0  0  0  0  0
   16.0171   38.5513  -10.7739 H   0  0  0  0  0  0  0  0  0  0  0  0
   17.5124   38.5650   -7.2184 H   0  0  0  0  0  0  0  0  0  0  0  0
   18.0258   36.3612   -8.3280 H   0  0  0  0  0  0  0  0  0  0  0  0
   17.6388   37.0144   -9.8971 H   0  0  0  0  0  0  0  0  0  0  0  0
   19.8051   38.1837   -8.0761 H   0  0  0  0  0  0  0  0  0  0  0  0
   20.1529   36.9527   -9.2403 H   0  0  0  0  0  0  0  0  0  0  0  0
   19.4313   38.4123  -11.1098 H   0  0  0  0  0  0  0  0  0  0  0  0
   18.9445   39.6373   -9.9848 H   0  0  0  0  0  0  0  0  0  0  0  0
   21.5041   39.4320   -9.1616 H   0  0  0  0  0  0  0  0  0  0  0  0
   21.7447   38.8226  -10.7697 H   0  0  0  0  0  0  0  0  0  0  0  0
   20.5358   41.5515  -10.0226 H   0  0  0  0  0  0  0  0  0  0  0  0
   22.1756   41.2625  -10.5066 H   0  0  0  0  0  0  0  0  0  0  0  0
   21.1027   42.1504  -12.4346 H   0  0  0  0  0  0  0  0  0  0  0  0
   21.3947   40.4682  -12.7640 H   0  0  0  0  0  0  0  0  0  0  0  0
   19.1000   39.9824  -12.5030 H   0  0  0  0  0  0  0  0  0  0  0  0
   16.9506   40.2969  -11.6564 H   0  0  0  0  0  0  0  0  0  0  0  0
   15.8072   44.3496  -10.7149 H   0  0  0  0  0  0  0  0  0  0  0  0
   17.3616   46.1263  -11.3209 H   0  0  0  0  0  0  0  0  0  0  0  0
   18.7319   45.7510  -12.3681 H   0  0  0  0  0  0  0  0  0  0  0  0
   18.9106   45.6535  -10.6104 H   0  0  0  0  0  0  0  0  0  0  0  0
   13.4773   41.3069   -9.3665 H   0  0  0  0  0  0  0  0  0  0  0  0
   20.0578   41.7875   -5.1103 H   0  0  0  0  0  0  0  0  0  0  0  0
   18.5314   41.7084   -6.4201 H   0  0  0  0  0  0  0  0  0  0  0  0
  1  2  1  0  0  0  0
  1 39  1  0  0  0  0
  1 40  1  0  0  0  0
  1 41  1  0  0  0  0
  2  3  1  0  0  0  0
  2  4  1  0  0  0  0
  2 42  1  0  0  0  0
  3 43  1  0  0  0  0
  3 44  1  0  0  0  0
  3 45  1  0  0  0  0
  4 36  1  0  0  0  0
  4  5  2  0  0  0  0
  5  6  1  0  0  0  0
  5 46  1  0  0  0  0
  6  7  2  0  0  0  0
  6 47  1  0  0  0  0
  7  8  1  0  0  0  0
  7 48  1  0  0  0  0
  8  9  1  0  0  0  0
  8 36  2  0  0  0  0
  9 10  1  0  0  0  0
  9 49  1  0  0  0  0
  9 50  1  0  0  0  0
 10 11  1  0  0  0  0
 10 51  1  0  0  0  0
 10 81  1  0  0  0  0
 11 12  1  0  0  0  0
 11 52  1  0  0  0  0
 11 53  1  0  0  0  0
 12 37  1  1  0  0  0
 12 13  1  0  0  0  0
 12 14  1  0  0  0  0
 13 54  1  0  0  0  0
 14 38  1  1  0  0  0
 14 35  1  0  0  0  0
 14 15  1  0  0  0  0
 15 16  1  0  0  0  0
 15 55  1  0  0  0  0
 15 56  1  0  0  0  0
 16 17  1  0  0  0  0
 16 18  2  0  0  0  0
 17 57  1  0  0  0  0
 17 58  1  0  0  0  0
 17 59  1  0  0  0  0
 18 19  1  0  0  0  0
 18 60  1  0  0  0  0
 19 20  1  0  0  0  0
 19 61  1  0  0  0  0
 19 62  1  0  0  0  0
 20 21  1  0  0  0  0
 20 63  1  0  0  0  0
 20 64  1  0  0  0  0
 21 22  1  0  0  0  0
 21 65  1  0  0  0  0
 21 66  1  0  0  0  0
 22 23  1  0  0  0  0
 22 67  1  0  0  0  0
 22 68  1  0  0  0  0
 23 24  1  0  0  0  0
 23 69  1  0  0  0  0
 23 70  1  0  0  0  0
 24 25  1  0  0  0  0
 24 71  1  0  0  0  0
 24 72  1  0  0  0  0
 25 26  1  0  0  0  0
 25 73  1  0  0  0  0
 26 32  1  0  0  0  0
 26 27  2  0  0  0  0
 27 28  1  0  0  0  0
 27 74  1  0  0  0  0
 28 29  2  0  0  0  0
 28 33  1  0  0  0  0
 29 30  1  0  0  0  0
 29 75  1  0  0  0  0
 30 31  1  0  0  0  0
 30 32  2  0  0  0  0
 31 76  1  0  0  0  0
 31 77  1  0  0  0  0
 31 78  1  0  0  0  0
 33 34  2  0  0  0  0
 33 35  1  0  0  0  0
 35 79  1  0  0  0  0
 36 80  1  0  0  0  0
M  CHG  1  10   1
M  END
