BACE_9.smi:1
 OpenBabel09301811243D
Structure written by MMmdl.
 88 90  0  0  1  0  0  0  0  0999 V2000
   22.9084   41.2721   -4.4796 C   0  0  0  0  0  0  0  0  0  0  0  0
   22.4505   40.9321   -5.7842 O   0  0  0  0  0  0  0  0  0  0  0  0
   21.6808   39.7366   -5.7803 C   0  0  0  0  0  0  0  0  0  0  0  0
   20.9058   39.5143   -7.0705 C   0  0  0  0  0  0  0  0  0  0  0  0
   19.5939   38.9958   -7.0145 C   0  0  0  0  0  0  0  0  0  0  0  0
   18.8511   38.7760   -8.1917 C   0  0  0  0  0  0  0  0  0  0  0  0
   19.4242   39.1267   -9.4362 C   0  0  0  0  0  0  0  0  0  0  0  0
   20.7161   39.6961   -9.5082 C   0  0  0  0  0  0  0  0  0  0  0  0
   21.4804   39.8083   -8.3253 C   0  0  0  0  0  0  0  0  0  0  0  0
   21.2540   40.1327  -10.8444 C   0  0  0  0  0  0  0  0  0  0  0  0
   21.2606   39.3497  -11.7861 O   0  0  0  0  0  0  0  0  0  0  0  0
   21.6732   41.3986  -11.0441 N   0  0  0  0  0  0  0  0  0  0  0  0
   21.5915   42.6274  -10.2395 C   0  0  1  0  0  0  0  0  0  0  0  0
   20.2458   42.8277   -9.4774 C   0  0  0  0  0  0  0  0  0  0  0  0
   18.9240   42.6916  -10.2743 C   0  0  2  0  0  0  0  0  0  0  0  0
   18.7682   43.8226  -11.3097 C   0  0  0  0  0  0  0  0  0  0  0  0
   17.7484   42.6306   -9.2720 C   0  0  0  0  0  0  0  0  0  0  0  0
   16.3449   42.4889   -9.8948 C   0  0  0  0  0  0  0  0  0  0  0  0
   15.2422   42.1713   -8.8623 C   0  0  0  0  0  0  0  0  0  0  0  0
   15.2811   40.7790   -8.1955 C   0  0  0  0  0  0  0  0  0  0  0  0
   14.8838   39.6011   -9.1113 C   0  0  0  0  0  0  0  0  0  0  0  0
   16.0305   38.9656   -9.9241 C   0  0  0  0  0  0  0  0  0  0  0  0
   16.7735   37.8113   -9.2206 C   0  0  0  0  0  0  0  0  0  0  0  0
   17.5611   38.2362   -8.0705 N   0  0  0  0  0  0  0  0  0  0  0  0
   22.8330   42.8427   -9.3235 C   0  0  2  0  0  0  0  0  0  0  0  0
   22.7574   44.1649   -8.8152 O   0  0  0  0  0  0  0  0  0  0  0  0
   24.2454   42.7535   -9.9631 C   0  0  0  0  0  0  0  0  0  0  0  0
   24.6518   41.4063  -10.4382 N   0  3  0  0  0  0  0  0  0  0  0  0
   26.0720   41.0109  -10.2505 C   0  0  0  0  0  0  0  0  0  0  0  0
   27.1535   42.0439  -10.5912 C   0  0  0  0  0  0  0  0  0  0  0  0
   27.9135   41.8976  -11.7745 C   0  0  0  0  0  0  0  0  0  0  0  0
   28.9884   42.7687  -12.0618 C   0  0  0  0  0  0  0  0  0  0  0  0
   29.2853   43.8199  -11.1691 C   0  0  0  0  0  0  0  0  0  0  0  0
   28.5383   43.9737   -9.9893 C   0  0  0  0  0  0  0  0  0  0  0  0
   27.4973   43.0783   -9.6902 C   0  0  0  0  0  0  0  0  0  0  0  0
   29.8592   42.5357  -13.2922 C   0  0  0  0  0  0  0  0  0  0  0  0
   31.2927   42.1599  -12.8828 C   0  0  0  0  0  0  0  0  0  0  0  0
   29.8663   43.7507  -14.2324 C   0  0  0  0  0  0  0  0  0  0  0  0
   21.6320   43.4204  -10.9871 H   0  0  0  0  0  0  0  0  0  0  0  0
   18.9259   41.7474  -10.8161 H   0  0  0  0  0  0  0  0  0  0  0  0
   22.7818   42.1924   -8.4555 H   0  0  0  0  0  0  0  0  0  0  0  0
   23.5252   42.1707   -4.5232 H   0  0  0  0  0  0  0  0  0  0  0  0
   23.5150   40.4730   -4.0399 H   0  0  0  0  0  0  0  0  0  0  0  0
   22.0734   41.4772   -3.8033 H   0  0  0  0  0  0  0  0  0  0  0  0
   22.3452   38.8937   -5.6077 H   0  0  0  0  0  0  0  0  0  0  0  0
   20.9724   39.7554   -4.9502 H   0  0  0  0  0  0  0  0  0  0  0  0
   19.1544   38.7583   -6.0554 H   0  0  0  0  0  0  0  0  0  0  0  0
   18.8712   38.9926  -10.3544 H   0  0  0  0  0  0  0  0  0  0  0  0
   22.5030   40.1429   -8.3665 H   0  0  0  0  0  0  0  0  0  0  0  0
   22.0017   41.5459  -11.9888 H   0  0  0  0  0  0  0  0  0  0  0  0
   20.2172   42.1562   -8.6218 H   0  0  0  0  0  0  0  0  0  0  0  0
   20.2440   43.8224   -9.0292 H   0  0  0  0  0  0  0  0  0  0  0  0
   18.7458   44.8000  -10.8275 H   0  0  0  0  0  0  0  0  0  0  0  0
   17.8486   43.7155  -11.8842 H   0  0  0  0  0  0  0  0  0  0  0  0
   19.5866   43.8216  -12.0317 H   0  0  0  0  0  0  0  0  0  0  0  0
   17.9197   41.7819   -8.6135 H   0  0  0  0  0  0  0  0  0  0  0  0
   17.7634   43.5109   -8.6306 H   0  0  0  0  0  0  0  0  0  0  0  0
   16.0849   43.4314  -10.3752 H   0  0  0  0  0  0  0  0  0  0  0  0
   16.3471   41.7545  -10.6975 H   0  0  0  0  0  0  0  0  0  0  0  0
   15.2793   42.9235   -8.0747 H   0  0  0  0  0  0  0  0  0  0  0  0
   14.2685   42.2959   -9.3360 H   0  0  0  0  0  0  0  0  0  0  0  0
   16.2354   40.5982   -7.7084 H   0  0  0  0  0  0  0  0  0  0  0  0
   14.5514   40.8017   -7.3806 H   0  0  0  0  0  0  0  0  0  0  0  0
   14.4099   38.8214   -8.5110 H   0  0  0  0  0  0  0  0  0  0  0  0
   14.1032   39.9378   -9.7931 H   0  0  0  0  0  0  0  0  0  0  0  0
   15.5908   38.5609  -10.8374 H   0  0  0  0  0  0  0  0  0  0  0  0
   16.7428   39.7130  -10.2562 H   0  0  0  0  0  0  0  0  0  0  0  0
   16.0523   37.0695   -8.8787 H   0  0  0  0  0  0  0  0  0  0  0  0
   17.4157   37.2909   -9.9338 H   0  0  0  0  0  0  0  0  0  0  0  0
   17.1904   38.0073   -7.1522 H   0  0  0  0  0  0  0  0  0  0  0  0
   23.2550   44.2173   -8.0126 H   0  0  0  0  0  0  0  0  0  0  0  0
   24.3594   43.4705  -10.7762 H   0  0  0  0  0  0  0  0  0  0  0  0
   24.9330   43.0601   -9.1805 H   0  0  0  0  0  0  0  0  0  0  0  0
   24.0888   40.7087   -9.9742 H   0  0  0  0  0  0  0  0  0  0  0  0
   26.2054   40.6441   -9.2403 H   0  0  0  0  0  0  0  0  0  0  0  0
   26.2357   40.1480  -10.8896 H   0  0  0  0  0  0  0  0  0  0  0  0
   27.7094   41.0716  -12.4389 H   0  0  0  0  0  0  0  0  0  0  0  0
   30.1068   44.4937  -11.3677 H   0  0  0  0  0  0  0  0  0  0  0  0
   28.7893   44.7651   -9.2976 H   0  0  0  0  0  0  0  0  0  0  0  0
   26.9880   43.1923   -8.7477 H   0  0  0  0  0  0  0  0  0  0  0  0
   29.4454   41.6893  -13.8449 H   0  0  0  0  0  0  0  0  0  0  0  0
   31.2942   41.3476  -12.1620 H   0  0  0  0  0  0  0  0  0  0  0  0
   31.8116   43.0006  -12.4195 H   0  0  0  0  0  0  0  0  0  0  0  0
   31.8792   41.8428  -13.7459 H   0  0  0  0  0  0  0  0  0  0  0  0
   28.8600   44.0320  -14.5292 H   0  0  0  0  0  0  0  0  0  0  0  0
   30.4290   43.5364  -15.1389 H   0  0  0  0  0  0  0  0  0  0  0  0
   30.3241   44.6208  -13.7617 H   0  0  0  0  0  0  0  0  0  0  0  0
   24.4587   41.3432  -11.4307 H   0  0  0  0  0  0  0  0  0  0  0  0
  1  2  1  0  0  0  0
  1 42  1  0  0  0  0
  1 43  1  0  0  0  0
  1 44  1  0  0  0  0
  2  3  1  0  0  0  0
  3  4  1  0  0  0  0
  3 45  1  0  0  0  0
  3 46  1  0  0  0  0
  4  9  1  0  0  0  0
  4  5  2  0  0  0  0
  5  6  1  0  0  0  0
  5 47  1  0  0  0  0
  6 24  1  0  0  0  0
  6  7  2  0  0  0  0
  7  8  1  0  0  0  0
  7 48  1  0  0  0  0
  8  9  2  0  0  0  0
  8 10  1  0  0  0  0
  9 49  1  0  0  0  0
 10 11  2  0  0  0  0
 10 12  1  0  0  0  0
 12 13  1  0  0  0  0
 12 50  1  0  0  0  0
 13 39  1  6  0  0  0
 13 14  1  0  0  0  0
 13 25  1  0  0  0  0
 14 15  1  0  0  0  0
 14 51  1  0  0  0  0
 14 52  1  0  0  0  0
 15 40  1  6  0  0  0
 15 16  1  0  0  0  0
 15 17  1  0  0  0  0
 16 53  1  0  0  0  0
 16 54  1  0  0  0  0
 16 55  1  0  0  0  0
 17 18  1  0  0  0  0
 17 56  1  0  0  0  0
 17 57  1  0  0  0  0
 18 19  1  0  0  0  0
 18 58  1  0  0  0  0
 18 59  1  0  0  0  0
 19 20  1  0  0  0  0
 19 60  1  0  0  0  0
 19 61  1  0  0  0  0
 20 21  1  0  0  0  0
 20 62  1  0  0  0  0
 20 63  1  0  0  0  0
 21 22  1  0  0  0  0
 21 64  1  0  0  0  0
 21 65  1  0  0  0  0
 22 23  1  0  0  0  0
 22 66  1  0  0  0  0
 22 67  1  0  0  0  0
 23 24  1  0  0  0  0
 23 68  1  0  0  0  0
 23 69  1  0  0  0  0
 24 70  1  0  0  0  0
 25 41  1  1  0  0  0
 25 26  1  0  0  0  0
 25 27  1  0  0  0  0
 26 71  1  0  0  0  0
 27 28  1  0  0  0  0
 27 72  1  0  0  0  0
 27 73  1  0  0  0  0
 28 29  1  0  0  0  0
 28 74  1  0  0  0  0
 28 88  1  0  0  0  0
 29 30  1  0  0  0  0
 29 75  1  0  0  0  0
 29 76  1  0  0  0  0
 30 35  1  0  0  0  0
 30 31  2  0  0  0  0
 31 32  1  0  0  0  0
 31 77  1  0  0  0  0
 32 33  2  0  0  0  0
 32 36  1  0  0  0  0
 33 34  1  0  0  0  0
 33 78  1  0  0  0  0
 34 35  2  0  0  0  0
 34 79  1  0  0  0  0
 35 80  1  0  0  0  0
 36 37  1  0  0  0  0
 36 38  1  0  0  0  0
 36 81  1  0  0  0  0
 37 82  1  0  0  0  0
 37 83  1  0  0  0  0
 37 84  1  0  0  0  0
 38 85  1  0  0  0  0
 38 86  1  0  0  0  0
 38 87  1  0  0  0  0
M  CHG  1  28   1
M  END
