BACE_9.smi:1
 OpenBabel10031817233D
Structure written by MMmdl.
 88 90  0  0  1  0  0  0  0  0999 V2000
   21.1023   41.9554   -3.7783 C   0  0  0  0  0  0  0  0  0  0  0  0
   22.0483   42.5342   -4.8458 C   0  0  2  0  0  0  0  0  0  0  0  0
   22.4396   43.9708   -4.4398 C   0  0  0  0  0  0  0  0  0  0  0  0
   23.5046   44.6276   -5.3255 C   0  0  0  0  0  0  0  0  0  0  0  0
   23.7846   46.0870   -4.9239 C   0  0  0  0  0  0  0  0  0  0  0  0
   24.8499   46.7543   -5.8093 C   0  0  0  0  0  0  0  0  0  0  0  0
   26.2798   46.2178   -5.5864 C   0  0  0  0  0  0  0  0  0  0  0  0
   27.2784   46.5943   -6.6992 C   0  0  0  0  0  0  0  0  0  0  0  0
   27.3068   45.6039   -7.8796 C   0  0  0  0  0  0  0  0  0  0  0  0
   26.0890   45.6671   -8.6737 N   0  0  0  0  0  0  0  0  0  0  0  0
   25.6267   44.4813   -9.2568 C   0  0  0  0  0  0  0  0  0  0  0  0
   26.5043   43.5460   -9.8501 C   0  0  0  0  0  0  0  0  0  0  0  0
   26.0004   42.3723  -10.4437 C   0  0  0  0  0  0  0  0  0  0  0  0
   24.6109   42.1214  -10.4329 C   0  0  0  0  0  0  0  0  0  0  0  0
   23.7273   43.0431   -9.8298 C   0  0  0  0  0  0  0  0  0  0  0  0
   24.2414   44.2238   -9.2528 C   0  0  0  0  0  0  0  0  0  0  0  0
   22.2502   42.7826   -9.8249 C   0  0  0  0  0  0  0  0  0  0  0  0
   21.5974   42.9376  -10.8524 O   0  0  0  0  0  0  0  0  0  0  0  0
   21.6641   42.3982   -8.6736 N   0  0  0  0  0  0  0  0  0  0  0  0
   22.2911   42.0012   -7.4016 C   0  0  1  0  0  0  0  0  0  0  0  0
   21.3884   42.5031   -6.2456 C   0  0  0  0  0  0  0  0  0  0  0  0
   22.6721   40.4779   -7.3743 C   0  0  1  0  0  0  0  0  0  0  0  0
   21.7316   39.4826   -6.6520 C   0  0  0  0  0  0  0  0  0  0  0  0
   20.3132   39.5154   -7.0770 N   0  3  0  0  0  0  0  0  0  0  0  0
   20.0726   39.3559   -8.5230 C   0  0  0  0  0  0  0  0  0  0  0  0
   18.7374   38.7061   -8.7338 C   0  0  0  0  0  0  0  0  0  0  0  0
   18.6958   37.3502   -9.0987 C   0  0  0  0  0  0  0  0  0  0  0  0
   17.4681   36.6936   -9.2401 C   0  0  0  0  0  0  0  0  0  0  0  0
   16.2784   37.4122   -9.0601 C   0  0  0  0  0  0  0  0  0  0  0  0
   16.3063   38.7723   -8.6804 C   0  0  0  0  0  0  0  0  0  0  0  0
   17.5443   39.4218   -8.5221 C   0  0  0  0  0  0  0  0  0  0  0  0
   15.0233   39.5255   -8.3807 C   0  0  0  0  0  0  0  0  0  0  0  0
   14.5829   39.2325   -6.9419 C   0  0  0  0  0  0  0  0  0  0  0  0
   13.9330   39.1825   -9.3951 C   0  0  0  0  0  0  0  0  0  0  0  0
   22.9110   39.9745   -8.6733 O   0  0  0  0  0  0  0  0  0  0  0  0
   26.9614   41.3691  -11.0469 C   0  0  0  0  0  0  0  0  0  0  0  0
   27.8261   41.9713  -11.9978 O   0  0  0  0  0  0  0  0  0  0  0  0
   28.8592   41.1017  -12.4395 C   0  0  0  0  0  0  0  0  0  0  0  0
   22.9470   41.9189   -4.8523 H   0  0  0  0  0  0  0  0  0  0  0  0
   23.2292   42.5495   -7.3194 H   0  0  0  0  0  0  0  0  0  0  0  0
   23.6329   40.3886   -6.8642 H   0  0  0  0  0  0  0  0  0  0  0  0
   20.1885   42.5472   -3.6976 H   0  0  0  0  0  0  0  0  0  0  0  0
   21.5742   41.9484   -2.7957 H   0  0  0  0  0  0  0  0  0  0  0  0
   20.8049   40.9335   -4.0032 H   0  0  0  0  0  0  0  0  0  0  0  0
   21.5416   44.5873   -4.4425 H   0  0  0  0  0  0  0  0  0  0  0  0
   22.8035   43.9650   -3.4110 H   0  0  0  0  0  0  0  0  0  0  0  0
   24.4132   44.0270   -5.2697 H   0  0  0  0  0  0  0  0  0  0  0  0
   23.1915   44.6188   -6.3671 H   0  0  0  0  0  0  0  0  0  0  0  0
   22.8608   46.6548   -5.0164 H   0  0  0  0  0  0  0  0  0  0  0  0
   24.0617   46.1502   -3.8735 H   0  0  0  0  0  0  0  0  0  0  0  0
   24.5439   46.6419   -6.8463 H   0  0  0  0  0  0  0  0  0  0  0  0
   24.8571   47.8293   -5.6222 H   0  0  0  0  0  0  0  0  0  0  0  0
   26.6414   46.6145   -4.6367 H   0  0  0  0  0  0  0  0  0  0  0  0
   26.2873   45.1359   -5.4638 H   0  0  0  0  0  0  0  0  0  0  0  0
   27.1053   47.6130   -7.0470 H   0  0  0  0  0  0  0  0  0  0  0  0
   28.2767   46.5995   -6.2619 H   0  0  0  0  0  0  0  0  0  0  0  0
   28.1488   45.8378   -8.5309 H   0  0  0  0  0  0  0  0  0  0  0  0
   27.4690   44.5923   -7.5047 H   0  0  0  0  0  0  0  0  0  0  0  0
   25.3783   46.2878   -8.3202 H   0  0  0  0  0  0  0  0  0  0  0  0
   27.5677   43.7273   -9.8643 H   0  0  0  0  0  0  0  0  0  0  0  0
   24.2233   41.2147  -10.8699 H   0  0  0  0  0  0  0  0  0  0  0  0
   23.5638   44.9347   -8.8056 H   0  0  0  0  0  0  0  0  0  0  0  0
   20.6622   42.3034   -8.7233 H   0  0  0  0  0  0  0  0  0  0  0  0
   20.4639   41.9341   -6.2107 H   0  0  0  0  0  0  0  0  0  0  0  0
   21.0461   43.5129   -6.4843 H   0  0  0  0  0  0  0  0  0  0  0  0
   22.0994   38.4627   -6.7901 H   0  0  0  0  0  0  0  0  0  0  0  0
   21.7659   39.6518   -5.5791 H   0  0  0  0  0  0  0  0  0  0  0  0
   19.8346   38.7543   -6.6131 H   0  0  0  0  0  0  0  0  0  0  0  0
   20.1084   40.3097   -9.0434 H   0  0  0  0  0  0  0  0  0  0  0  0
   20.8328   38.7101   -8.9662 H   0  0  0  0  0  0  0  0  0  0  0  0
   19.6197   36.8140   -9.2403 H   0  0  0  0  0  0  0  0  0  0  0  0
   17.4408   35.6522   -9.5159 H   0  0  0  0  0  0  0  0  0  0  0  0
   15.3483   36.8927   -9.2009 H   0  0  0  0  0  0  0  0  0  0  0  0
   17.5755   40.4581   -8.2194 H   0  0  0  0  0  0  0  0  0  0  0  0
   15.2194   40.5947   -8.4634 H   0  0  0  0  0  0  0  0  0  0  0  0
   15.3409   39.5413   -6.2199 H   0  0  0  0  0  0  0  0  0  0  0  0
   14.4149   38.1652   -6.7973 H   0  0  0  0  0  0  0  0  0  0  0  0
   13.6640   39.7496   -6.6842 H   0  0  0  0  0  0  0  0  0  0  0  0
   14.2682   39.3514  -10.4183 H   0  0  0  0  0  0  0  0  0  0  0  0
   13.0210   39.7524   -9.2500 H   0  0  0  0  0  0  0  0  0  0  0  0
   13.6597   38.1376   -9.2933 H   0  0  0  0  0  0  0  0  0  0  0  0
   23.6775   39.4105   -8.6800 H   0  0  0  0  0  0  0  0  0  0  0  0
   27.5388   40.9503  -10.2270 H   0  0  0  0  0  0  0  0  0  0  0  0
   26.4152   40.5479  -11.5089 H   0  0  0  0  0  0  0  0  0  0  0  0
   29.4333   41.5831  -13.2289 H   0  0  0  0  0  0  0  0  0  0  0  0
   28.4595   40.1686  -12.8404 H   0  0  0  0  0  0  0  0  0  0  0  0
   29.5437   40.8649  -11.6256 H   0  0  0  0  0  0  0  0  0  0  0  0
   19.8733   40.3715   -6.7686 H   0  0  0  0  0  0  0  0  0  0  0  0
  1  2  1  0  0  0  0
  1 42  1  0  0  0  0
  1 43  1  0  0  0  0
  1 44  1  0  0  0  0
  2 39  1  6  0  0  0
  2 21  1  0  0  0  0
  2  3  1  0  0  0  0
  3  4  1  0  0  0  0
  3 45  1  0  0  0  0
  3 46  1  0  0  0  0
  4  5  1  0  0  0  0
  4 47  1  0  0  0  0
  4 48  1  0  0  0  0
  5  6  1  0  0  0  0
  5 49  1  0  0  0  0
  5 50  1  0  0  0  0
  6  7  1  0  0  0  0
  6 51  1  0  0  0  0
  6 52  1  0  0  0  0
  7  8  1  0  0  0  0
  7 53  1  0  0  0  0
  7 54  1  0  0  0  0
  8  9  1  0  0  0  0
  8 55  1  0  0  0  0
  8 56  1  0  0  0  0
  9 10  1  0  0  0  0
  9 57  1  0  0  0  0
  9 58  1  0  0  0  0
 10 11  1  0  0  0  0
 10 59  1  0  0  0  0
 11 16  1  0  0  0  0
 11 12  2  0  0  0  0
 12 13  1  0  0  0  0
 12 60  1  0  0  0  0
 13 14  2  0  0  0  0
 13 36  1  0  0  0  0
 14 15  1  0  0  0  0
 14 61  1  0  0  0  0
 15 16  2  0  0  0  0
 15 17  1  0  0  0  0
 16 62  1  0  0  0  0
 17 18  2  0  0  0  0
 17 19  1  0  0  0  0
 19 20  1  0  0  0  0
 19 63  1  0  0  0  0
 20 40  1  1  0  0  0
 20 21  1  0  0  0  0
 20 22  1  0  0  0  0
 21 64  1  0  0  0  0
 21 65  1  0  0  0  0
 22 41  1  1  0  0  0
 22 23  1  0  0  0  0
 22 35  1  0  0  0  0
 23 24  1  0  0  0  0
 23 66  1  0  0  0  0
 23 67  1  0  0  0  0
 24 25  1  0  0  0  0
 24 68  1  0  0  0  0
 24 88  1  0  0  0  0
 25 26  1  0  0  0  0
 25 69  1  0  0  0  0
 25 70  1  0  0  0  0
 26 31  1  0  0  0  0
 26 27  2  0  0  0  0
 27 28  1  0  0  0  0
 27 71  1  0  0  0  0
 28 29  2  0  0  0  0
 28 72  1  0  0  0  0
 29 30  1  0  0  0  0
 29 73  1  0  0  0  0
 30 31  2  0  0  0  0
 30 32  1  0  0  0  0
 31 74  1  0  0  0  0
 32 33  1  0  0  0  0
 32 34  1  0  0  0  0
 32 75  1  0  0  0  0
 33 76  1  0  0  0  0
 33 77  1  0  0  0  0
 33 78  1  0  0  0  0
 34 79  1  0  0  0  0
 34 80  1  0  0  0  0
 34 81  1  0  0  0  0
 35 82  1  0  0  0  0
 36 37  1  0  0  0  0
 36 83  1  0  0  0  0
 36 84  1  0  0  0  0
 37 38  1  0  0  0  0
 38 85  1  0  0  0  0
 38 86  1  0  0  0  0
 38 87  1  0  0  0  0
M  CHG  1  24   1
M  END
