BACE_13.smi:1
 OpenBabel10031817233D
Structure written by MMmdl.
 77 80  0  0  1  0  0  0  0  0999 V2000
   20.0613   40.9586   -2.2548 C   0  0  0  0  0  0  0  0  0  0  0  0
   21.3843   41.4362   -2.4443 O   0  0  0  0  0  0  0  0  0  0  0  0
   21.4762   42.5351   -3.3428 C   0  0  0  0  0  0  0  0  0  0  0  0
   21.1051   42.1822   -4.7759 C   0  0  0  0  0  0  0  0  0  0  0  0
   20.1691   42.9679   -5.4776 C   0  0  0  0  0  0  0  0  0  0  0  0
   19.7601   42.6208   -6.7855 C   0  0  0  0  0  0  0  0  0  0  0  0
   20.3610   41.5004   -7.4109 C   0  0  0  0  0  0  0  0  0  0  0  0
   21.3042   40.7016   -6.7149 C   0  0  0  0  0  0  0  0  0  0  0  0
   21.6771   41.0578   -5.4034 C   0  0  0  0  0  0  0  0  0  0  0  0
   21.8744   39.5417   -7.2659 N   0  0  0  0  0  0  0  0  0  0  0  0
   21.1675   38.8242   -8.3188 C   0  0  0  0  0  0  0  0  0  0  0  0
   21.6365   39.2252   -9.7220 C   0  0  0  0  0  0  0  0  0  0  0  0
   20.5110   39.1462  -10.7622 C   0  0  0  0  0  0  0  0  0  0  0  0
   20.9407   39.6731  -12.1468 C   0  0  0  0  0  0  0  0  0  0  0  0
   21.6151   40.9244  -12.0684 O   0  0  0  0  0  0  0  0  0  0  0  0
   20.9428   42.0450  -11.6363 C   0  0  0  0  0  0  0  0  0  0  0  0
   21.7321   43.1571  -11.2851 C   0  0  0  0  0  0  0  0  0  0  0  0
   21.1362   44.3512  -10.8400 C   0  0  0  0  0  0  0  0  0  0  0  0
   19.7391   44.4342  -10.7201 C   0  0  0  0  0  0  0  0  0  0  0  0
   18.9357   43.3207  -11.0403 C   0  0  0  0  0  0  0  0  0  0  0  0
   19.5348   42.1400  -11.5268 C   0  0  0  0  0  0  0  0  0  0  0  0
   17.4333   43.3739  -10.8073 C   0  0  0  0  0  0  0  0  0  0  0  0
   17.0280   43.5274   -9.3161 C   0  0  2  0  0  0  0  0  0  0  0  0
   17.9869   42.8396   -8.4347 N   0  0  0  0  0  0  0  0  0  0  0  0
   18.6930   43.4440   -7.4587 C   0  0  0  0  0  0  0  0  0  0  0  0
   18.4572   44.5908   -7.0773 O   0  0  0  0  0  0  0  0  0  0  0  0
   15.5340   43.1488   -9.0602 C   0  0  1  0  0  0  0  0  0  0  0  0
   15.1434   41.7157   -8.5900 C   0  0  1  0  0  0  0  0  0  0  0  0
   15.4913   40.6438   -9.6462 C   0  0  0  0  0  0  0  0  0  0  0  0
   15.1689   39.3329   -9.1919 O   0  0  0  0  0  0  0  0  0  0  0  0
   15.8422   38.9675   -7.9883 C   0  0  2  0  0  0  0  0  0  0  0  0
   15.3814   39.9436   -6.8837 C   0  0  0  0  0  0  0  0  0  0  0  0
   15.6602   41.3498   -7.2453 N   0  3  0  0  0  0  0  0  0  0  0  0
   17.3713   38.9024   -8.2518 C   0  0  0  0  0  0  0  0  0  0  0  0
   18.0432   37.8650   -7.5683 O   0  0  0  0  0  0  0  0  0  0  0  0
   18.2845   38.1598   -6.2072 C   0  0  0  0  0  0  0  0  0  0  0  0
   14.9204   44.1354   -8.2587 O   0  0  0  0  0  0  0  0  0  0  0  0
   17.1237   44.6002   -9.1412 H   0  0  0  0  0  0  0  0  0  0  0  0
   15.0193   43.2908  -10.0120 H   0  0  0  0  0  0  0  0  0  0  0  0
   14.0601   41.7002   -8.4963 H   0  0  0  0  0  0  0  0  0  0  0  0
   15.4926   37.9648   -7.7407 H   0  0  0  0  0  0  0  0  0  0  0  0
   20.0599   40.1541   -1.5176 H   0  0  0  0  0  0  0  0  0  0  0  0
   19.6601   40.5549   -3.1831 H   0  0  0  0  0  0  0  0  0  0  0  0
   19.3997   41.7485   -1.8973 H   0  0  0  0  0  0  0  0  0  0  0  0
   22.5052   42.8977   -3.3310 H   0  0  0  0  0  0  0  0  0  0  0  0
   20.8520   43.3497   -2.9758 H   0  0  0  0  0  0  0  0  0  0  0  0
   19.7157   43.8153   -4.9820 H   0  0  0  0  0  0  0  0  0  0  0  0
   20.0878   41.2450   -8.4239 H   0  0  0  0  0  0  0  0  0  0  0  0
   22.3895   40.4548   -4.8599 H   0  0  0  0  0  0  0  0  0  0  0  0
   22.4738   38.9911   -6.6686 H   0  0  0  0  0  0  0  0  0  0  0  0
   20.1021   39.0050   -8.2171 H   0  0  0  0  0  0  0  0  0  0  0  0
   21.3017   37.7510   -8.1815 H   0  0  0  0  0  0  0  0  0  0  0  0
   22.4609   38.5857  -10.0290 H   0  0  0  0  0  0  0  0  0  0  0  0
   22.0322   40.2413   -9.6916 H   0  0  0  0  0  0  0  0  0  0  0  0
   19.6574   39.7125  -10.3952 H   0  0  0  0  0  0  0  0  0  0  0  0
   20.1567   38.1197  -10.8511 H   0  0  0  0  0  0  0  0  0  0  0  0
   20.0980   39.7351  -12.8351 H   0  0  0  0  0  0  0  0  0  0  0  0
   21.6442   38.9698  -12.5977 H   0  0  0  0  0  0  0  0  0  0  0  0
   22.8073   43.0922  -11.3656 H   0  0  0  0  0  0  0  0  0  0  0  0
   21.7534   45.1977  -10.5797 H   0  0  0  0  0  0  0  0  0  0  0  0
   19.2891   45.3443  -10.3528 H   0  0  0  0  0  0  0  0  0  0  0  0
   18.9017   41.3060  -11.7877 H   0  0  0  0  0  0  0  0  0  0  0  0
   16.9936   42.4730  -11.2305 H   0  0  0  0  0  0  0  0  0  0  0  0
   17.0201   44.2001  -11.3865 H   0  0  0  0  0  0  0  0  0  0  0  0
   18.2801   41.9126   -8.7018 H   0  0  0  0  0  0  0  0  0  0  0  0
   16.5437   40.6955   -9.9259 H   0  0  0  0  0  0  0  0  0  0  0  0
   14.9292   40.8335  -10.5615 H   0  0  0  0  0  0  0  0  0  0  0  0
   15.8385   39.7237   -5.9226 H   0  0  0  0  0  0  0  0  0  0  0  0
   14.3076   39.8299   -6.7288 H   0  0  0  0  0  0  0  0  0  0  0  0
   16.6559   41.5085   -7.1908 H   0  0  0  0  0  0  0  0  0  0  0  0
   17.5240   38.6601   -9.3048 H   0  0  0  0  0  0  0  0  0  0  0  0
   17.8613   39.8632   -8.0948 H   0  0  0  0  0  0  0  0  0  0  0  0
   18.8599   37.3502   -5.7817 H   0  0  0  0  0  0  0  0  0  0  0  0
   17.3614   38.2239   -5.6410 H   0  0  0  0  0  0  0  0  0  0  0  0
   18.8502   39.0819   -6.0751 H   0  0  0  0  0  0  0  0  0  0  0  0
   15.2606   44.0629   -7.3743 H   0  0  0  0  0  0  0  0  0  0  0  0
   15.2165   41.9295   -6.5353 H   0  0  0  0  0  0  0  0  0  0  0  0
  1  2  1  0  0  0  0
  1 42  1  0  0  0  0
  1 43  1  0  0  0  0
  1 44  1  0  0  0  0
  2  3  1  0  0  0  0
  3  4  1  0  0  0  0
  3 45  1  0  0  0  0
  3 46  1  0  0  0  0
  4  9  1  0  0  0  0
  4  5  2  0  0  0  0
  5  6  1  0  0  0  0
  5 47  1  0  0  0  0
  6 25  1  0  0  0  0
  6  7  2  0  0  0  0
  7  8  1  0  0  0  0
  7 48  1  0  0  0  0
  8  9  2  0  0  0  0
  8 10  1  0  0  0  0
  9 49  1  0  0  0  0
 10 11  1  0  0  0  0
 10 50  1  0  0  0  0
 11 12  1  0  0  0  0
 11 51  1  0  0  0  0
 11 52  1  0  0  0  0
 12 13  1  0  0  0  0
 12 53  1  0  0  0  0
 12 54  1  0  0  0  0
 13 14  1  0  0  0  0
 13 55  1  0  0  0  0
 13 56  1  0  0  0  0
 14 15  1  0  0  0  0
 14 57  1  0  0  0  0
 14 58  1  0  0  0  0
 15 16  1  0  0  0  0
 16 21  1  0  0  0  0
 16 17  2  0  0  0  0
 17 18  1  0  0  0  0
 17 59  1  0  0  0  0
 18 19  2  0  0  0  0
 18 60  1  0  0  0  0
 19 20  1  0  0  0  0
 19 61  1  0  0  0  0
 20 21  2  0  0  0  0
 20 22  1  0  0  0  0
 21 62  1  0  0  0  0
 22 23  1  0  0  0  0
 22 63  1  0  0  0  0
 22 64  1  0  0  0  0
 23 38  1  1  0  0  0
 23 24  1  0  0  0  0
 23 27  1  0  0  0  0
 24 25  1  0  0  0  0
 24 65  1  0  0  0  0
 25 26  2  0  0  0  0
 27 39  1  6  0  0  0
 27 28  1  0  0  0  0
 27 37  1  0  0  0  0
 28 40  1  1  0  0  0
 28 33  1  0  0  0  0
 28 29  1  0  0  0  0
 29 30  1  0  0  0  0
 29 66  1  0  0  0  0
 29 67  1  0  0  0  0
 30 31  1  0  0  0  0
 31 41  1  1  0  0  0
 31 32  1  0  0  0  0
 31 34  1  0  0  0  0
 32 33  1  0  0  0  0
 32 68  1  0  0  0  0
 32 69  1  0  0  0  0
 33 70  1  0  0  0  0
 33 77  1  0  0  0  0
 34 35  1  0  0  0  0
 34 71  1  0  0  0  0
 34 72  1  0  0  0  0
 35 36  1  0  0  0  0
 36 73  1  0  0  0  0
 36 74  1  0  0  0  0
 36 75  1  0  0  0  0
 37 76  1  0  0  0  0
M  CHG  1  33   1
M  END
