BACE_19.smi:1
 OpenBabel10031817233D
Structure written by MMmdl.
 76 77  0  0  1  0  0  0  0  0999 V2000
   29.9212   43.6480   -9.9684 C   0  0  0  0  0  0  0  0  0  0  0  0
   28.4491   43.2378   -9.8615 C   0  0  0  0  0  0  0  0  0  0  0  0
   28.0656   42.1483  -10.8790 C   0  0  0  0  0  0  0  0  0  0  0  0
   26.6712   41.5395  -10.6492 C   0  0  0  0  0  0  0  0  0  0  0  0
   25.5983   42.4915  -10.9183 N   0  0  0  0  0  0  0  0  0  0  0  0
   25.0043   43.2788  -10.0058 C   0  0  0  0  0  0  0  0  0  0  0  0
   25.3717   43.3526   -8.8354 O   0  0  0  0  0  0  0  0  0  0  0  0
   23.7934   44.0925  -10.4888 C   0  0  2  0  0  0  0  0  0  0  0  0
   23.8459   45.5264   -9.9316 C   0  0  0  0  0  0  0  0  0  0  0  0
   22.4637   43.3937  -10.1156 C   0  0  0  0  0  0  0  0  0  0  0  0
   22.2791   42.0010  -10.7576 C   0  0  1  0  0  0  0  0  0  0  0  0
   21.0726   41.1883  -10.2302 C   0  0  2  0  0  0  0  0  0  0  0  0
   21.0329   39.7389  -10.7907 C   0  0  0  0  0  0  0  0  0  0  0  0
   19.9494   38.7748  -10.2438 C   0  0  1  0  0  0  0  0  0  0  0  0
   19.8949   38.7186   -8.6937 C   0  0  0  0  0  0  0  0  0  0  0  0
   18.7573   37.8752   -8.0653 C   0  0  0  0  0  0  0  0  0  0  0  0
   17.3916   38.5233   -8.1874 C   0  0  0  0  0  0  0  0  0  0  0  0
   16.3248   37.8664   -8.8388 C   0  0  0  0  0  0  0  0  0  0  0  0
   15.1152   38.5473   -9.0718 C   0  0  0  0  0  0  0  0  0  0  0  0
   14.9707   39.8851   -8.6566 C   0  0  0  0  0  0  0  0  0  0  0  0
   16.0187   40.5289   -7.9743 C   0  0  0  0  0  0  0  0  0  0  0  0
   17.2119   39.8367   -7.7139 C   0  0  0  0  0  0  0  0  0  0  0  0
   15.8705   41.9643   -7.5092 C   0  0  0  0  0  0  0  0  0  0  0  0
   17.0713   43.1056   -8.3329 S   0  0  0  0  0  0  0  0  0  0  0  0
   16.6362   44.4916   -8.0867 O   0  0  0  0  0  0  0  0  0  0  0  0
   18.4426   42.7173   -7.9755 O   0  0  0  0  0  0  0  0  0  0  0  0
   16.8238   42.7377  -10.1317 C   0  0  0  0  0  0  0  0  0  0  0  0
   17.9213   43.3027  -11.0701 C   0  0  2  0  0  0  0  0  0  0  0  0
   19.0712   42.3150  -11.3301 C   0  0  0  0  0  0  0  0  0  0  0  0
   19.2612   41.9096  -12.4760 O   0  0  0  0  0  0  0  0  0  0  0  0
   19.8137   41.9482  -10.2696 N   0  0  0  0  0  0  0  0  0  0  0  0
   18.4502   44.7045  -10.7108 C   0  0  0  0  0  0  0  0  0  0  0  0
   18.6052   39.0187  -10.9380 C   0  0  0  0  0  0  0  0  0  0  0  0
   22.2195   42.1500  -12.1573 O   0  0  0  0  0  0  0  0  0  0  0  0
   23.8526   44.1712  -11.5761 H   0  0  0  0  0  0  0  0  0  0  0  0
   23.1607   41.3953  -10.5535 H   0  0  0  0  0  0  0  0  0  0  0  0
   21.2745   41.0913   -9.1643 H   0  0  0  0  0  0  0  0  0  0  0  0
   20.2476   37.7780  -10.5627 H   0  0  0  0  0  0  0  0  0  0  0  0
   17.4346   43.4163  -12.0398 H   0  0  0  0  0  0  0  0  0  0  0  0
   30.1601   44.4306   -9.2473 H   0  0  0  0  0  0  0  0  0  0  0  0
   30.1516   44.0279  -10.9640 H   0  0  0  0  0  0  0  0  0  0  0  0
   30.5791   42.8008   -9.7707 H   0  0  0  0  0  0  0  0  0  0  0  0
   28.2422   42.8915   -8.8482 H   0  0  0  0  0  0  0  0  0  0  0  0
   27.8218   44.1191  -10.0113 H   0  0  0  0  0  0  0  0  0  0  0  0
   28.1303   42.5527  -11.8897 H   0  0  0  0  0  0  0  0  0  0  0  0
   28.8044   41.3497  -10.8377 H   0  0  0  0  0  0  0  0  0  0  0  0
   26.5332   40.6899  -11.3191 H   0  0  0  0  0  0  0  0  0  0  0  0
   26.5900   41.1328   -9.6409 H   0  0  0  0  0  0  0  0  0  0  0  0
   25.1993   42.4700  -11.8453 H   0  0  0  0  0  0  0  0  0  0  0  0
   24.7983   46.0065  -10.1560 H   0  0  0  0  0  0  0  0  0  0  0  0
   23.7139   45.5433   -8.8493 H   0  0  0  0  0  0  0  0  0  0  0  0
   23.0598   46.1408  -10.3684 H   0  0  0  0  0  0  0  0  0  0  0  0
   22.4035   43.3010   -9.0320 H   0  0  0  0  0  0  0  0  0  0  0  0
   21.6309   44.0352  -10.4039 H   0  0  0  0  0  0  0  0  0  0  0  0
   20.9677   39.7683  -11.8794 H   0  0  0  0  0  0  0  0  0  0  0  0
   22.0050   39.2857  -10.5872 H   0  0  0  0  0  0  0  0  0  0  0  0
   20.8446   38.3104   -8.3450 H   0  0  0  0  0  0  0  0  0  0  0  0
   19.8480   39.7215   -8.2742 H   0  0  0  0  0  0  0  0  0  0  0  0
   18.7363   36.8823   -8.5100 H   0  0  0  0  0  0  0  0  0  0  0  0
   18.9545   37.7496   -6.9991 H   0  0  0  0  0  0  0  0  0  0  0  0
   16.4416   36.8521   -9.1887 H   0  0  0  0  0  0  0  0  0  0  0  0
   14.3015   38.0547   -9.5826 H   0  0  0  0  0  0  0  0  0  0  0  0
   14.0551   40.4107   -8.8597 H   0  0  0  0  0  0  0  0  0  0  0  0
   18.0121   40.3326   -7.1884 H   0  0  0  0  0  0  0  0  0  0  0  0
   14.8589   42.3323   -7.6665 H   0  0  0  0  0  0  0  0  0  0  0  0
   16.0597   41.9970   -6.4390 H   0  0  0  0  0  0  0  0  0  0  0  0
   16.7464   41.6586  -10.2498 H   0  0  0  0  0  0  0  0  0  0  0  0
   15.8506   43.1431  -10.4008 H   0  0  0  0  0  0  0  0  0  0  0  0
   19.4868   42.2857   -9.3674 H   0  0  0  0  0  0  0  0  0  0  0  0
   19.1249   45.0751  -11.4838 H   0  0  0  0  0  0  0  0  0  0  0  0
   19.0022   44.7100   -9.7711 H   0  0  0  0  0  0  0  0  0  0  0  0
   17.6307   45.4180  -10.6228 H   0  0  0  0  0  0  0  0  0  0  0  0
   18.0712   39.8562  -10.5034 H   0  0  0  0  0  0  0  0  0  0  0  0
   17.9683   38.1454  -10.8480 H   0  0  0  0  0  0  0  0  0  0  0  0
   18.7293   39.2180  -12.0018 H   0  0  0  0  0  0  0  0  0  0  0  0
   22.7172   41.4423  -12.5572 H   0  0  0  0  0  0  0  0  0  0  0  0
  1  2  1  0  0  0  0
  1 40  1  0  0  0  0
  1 41  1  0  0  0  0
  1 42  1  0  0  0  0
  2  3  1  0  0  0  0
  2 43  1  0  0  0  0
  2 44  1  0  0  0  0
  3  4  1  0  0  0  0
  3 45  1  0  0  0  0
  3 46  1  0  0  0  0
  4  5  1  0  0  0  0
  4 47  1  0  0  0  0
  4 48  1  0  0  0  0
  5  6  1  0  0  0  0
  5 49  1  0  0  0  0
  6  7  2  0  0  0  0
  6  8  1  0  0  0  0
  8 35  1  6  0  0  0
  8  9  1  0  0  0  0
  8 10  1  0  0  0  0
  9 50  1  0  0  0  0
  9 51  1  0  0  0  0
  9 52  1  0  0  0  0
 10 11  1  0  0  0  0
 10 53  1  0  0  0  0
 10 54  1  0  0  0  0
 11 36  1  1  0  0  0
 11 12  1  0  0  0  0
 11 34  1  0  0  0  0
 12 37  1  1  0  0  0
 12 31  1  0  0  0  0
 12 13  1  0  0  0  0
 13 14  1  0  0  0  0
 13 55  1  0  0  0  0
 13 56  1  0  0  0  0
 14 38  1  6  0  0  0
 14 15  1  0  0  0  0
 14 33  1  0  0  0  0
 15 16  1  0  0  0  0
 15 57  1  0  0  0  0
 15 58  1  0  0  0  0
 16 17  1  0  0  0  0
 16 59  1  0  0  0  0
 16 60  1  0  0  0  0
 17 22  1  0  0  0  0
 17 18  2  0  0  0  0
 18 19  1  0  0  0  0
 18 61  1  0  0  0  0
 19 20  2  0  0  0  0
 19 62  1  0  0  0  0
 20 21  1  0  0  0  0
 20 63  1  0  0  0  0
 21 22  2  0  0  0  0
 21 23  1  0  0  0  0
 22 64  1  0  0  0  0
 23 24  1  0  0  0  0
 23 65  1  0  0  0  0
 23 66  1  0  0  0  0
 24 25  2  0  0  0  0
 24 26  2  0  0  0  0
 24 27  1  0  0  0  0
 27 28  1  0  0  0  0
 27 67  1  0  0  0  0
 27 68  1  0  0  0  0
 28 39  1  6  0  0  0
 28 29  1  0  0  0  0
 28 32  1  0  0  0  0
 29 30  2  0  0  0  0
 29 31  1  0  0  0  0
 31 69  1  0  0  0  0
 32 70  1  0  0  0  0
 32 71  1  0  0  0  0
 32 72  1  0  0  0  0
 33 73  1  0  0  0  0
 33 74  1  0  0  0  0
 33 75  1  0  0  0  0
 34 76  1  0  0  0  0
M  END
