BACE_13.smi:1
 OpenBabel10031817233D
Structure written by MMmdl.
 77 80  0  0  1  0  0  0  0  0999 V2000
   23.3882   42.9500   -4.2004 C   0  0  0  0  0  0  0  0  0  0  0  0
   22.8554   41.8855   -3.4294 O   0  0  0  0  0  0  0  0  0  0  0  0
   21.4533   41.7714   -3.5401 C   0  0  0  0  0  0  0  0  0  0  0  0
   21.0361   41.5531   -4.9746 C   0  0  0  0  0  0  0  0  0  0  0  0
   20.2864   42.5383   -5.6378 C   0  0  0  0  0  0  0  0  0  0  0  0
   19.8382   42.3140   -6.9531 C   0  0  0  0  0  0  0  0  0  0  0  0
   20.2764   41.1578   -7.6474 C   0  0  0  0  0  0  0  0  0  0  0  0
   21.0922   40.1924   -7.0006 C   0  0  0  0  0  0  0  0  0  0  0  0
   21.4489   40.3924   -5.6545 C   0  0  0  0  0  0  0  0  0  0  0  0
   21.5456   39.0156   -7.6198 N   0  0  0  0  0  0  0  0  0  0  0  0
   20.8782   38.5047   -8.8063 C   0  0  0  0  0  0  0  0  0  0  0  0
   21.4474   39.1028  -10.0942 C   0  0  0  0  0  0  0  0  0  0  0  0
   20.3860   39.1623  -11.2033 C   0  0  0  0  0  0  0  0  0  0  0  0
   20.8742   39.9041  -12.4616 C   0  0  0  0  0  0  0  0  0  0  0  0
   21.5814   41.0980  -12.1458 O   0  0  0  0  0  0  0  0  0  0  0  0
   20.9202   42.1942  -11.6399 C   0  0  0  0  0  0  0  0  0  0  0  0
   21.7256   43.2788  -11.2405 C   0  0  0  0  0  0  0  0  0  0  0  0
   21.1469   44.4696  -10.7668 C   0  0  0  0  0  0  0  0  0  0  0  0
   19.7495   44.5753  -10.6619 C   0  0  0  0  0  0  0  0  0  0  0  0
   18.9309   43.4841  -11.0171 C   0  0  0  0  0  0  0  0  0  0  0  0
   19.5131   42.3072  -11.5338 C   0  0  0  0  0  0  0  0  0  0  0  0
   17.4343   43.5469  -10.7557 C   0  0  0  0  0  0  0  0  0  0  0  0
   17.0802   43.6106   -9.2447 C   0  0  2  0  0  0  0  0  0  0  0  0
   18.0167   42.8026   -8.4531 N   0  0  0  0  0  0  0  0  0  0  0  0
   18.8891   43.3031   -7.5620 C   0  0  0  0  0  0  0  0  0  0  0  0
   18.8796   44.4785   -7.1908 O   0  0  0  0  0  0  0  0  0  0  0  0
   15.5859   43.2898   -8.9501 C   0  0  1  0  0  0  0  0  0  0  0  0
   15.1446   41.8364   -8.5884 C   0  0  1  0  0  0  0  0  0  0  0  0
   15.5149   40.8021   -9.6767 C   0  0  0  0  0  0  0  0  0  0  0  0
   15.1247   39.4803   -9.3085 O   0  0  0  0  0  0  0  0  0  0  0  0
   15.6895   39.0311   -8.0761 C   0  0  2  0  0  0  0  0  0  0  0  0
   15.1673   39.9751   -6.9708 C   0  0  0  0  0  0  0  0  0  0  0  0
   15.5696   41.3728   -7.2400 N   0  3  0  0  0  0  0  0  0  0  0  0
   17.2320   38.9246   -8.2216 C   0  0  0  0  0  0  0  0  0  0  0  0
   17.8157   37.8449   -7.5188 O   0  0  0  0  0  0  0  0  0  0  0  0
   18.1241   38.1499   -6.1701 C   0  0  0  0  0  0  0  0  0  0  0  0
   15.0737   44.2461   -8.0400 O   0  0  0  0  0  0  0  0  0  0  0  0
   17.2371   44.6607   -8.9914 H   0  0  0  0  0  0  0  0  0  0  0  0
   15.0464   43.5331   -9.8669 H   0  0  0  0  0  0  0  0  0  0  0  0
   14.0598   41.8498   -8.5495 H   0  0  0  0  0  0  0  0  0  0  0  0
   15.2907   38.0299   -7.9048 H   0  0  0  0  0  0  0  0  0  0  0  0
   24.4599   42.9500   -4.0653 H   0  0  0  0  0  0  0  0  0  0  0  0
   22.9912   43.9165   -3.8857 H   0  0  0  0  0  0  0  0  0  0  0  0
   23.2254   42.8315   -5.2724 H   0  0  0  0  0  0  0  0  0  0  0  0
   20.9736   42.6594   -3.1241 H   0  0  0  0  0  0  0  0  0  0  0  0
   21.1189   40.9249   -2.9390 H   0  0  0  0  0  0  0  0  0  0  0  0
   19.9806   43.4239   -5.0999 H   0  0  0  0  0  0  0  0  0  0  0  0
   19.9769   41.0111   -8.6735 H   0  0  0  0  0  0  0  0  0  0  0  0
   22.0530   39.6613   -5.1360 H   0  0  0  0  0  0  0  0  0  0  0  0
   22.0547   38.3487   -7.0586 H   0  0  0  0  0  0  0  0  0  0  0  0
   19.8168   38.7182   -8.7262 H   0  0  0  0  0  0  0  0  0  0  0  0
   20.9636   37.4190   -8.8401 H   0  0  0  0  0  0  0  0  0  0  0  0
   22.3237   38.5413  -10.4187 H   0  0  0  0  0  0  0  0  0  0  0  0
   21.8064   40.1118   -9.8896 H   0  0  0  0  0  0  0  0  0  0  0  0
   19.5002   39.6548  -10.8076 H   0  0  0  0  0  0  0  0  0  0  0  0
   20.0595   38.1550  -11.4672 H   0  0  0  0  0  0  0  0  0  0  0  0
   20.0595   40.1086  -13.1561 H   0  0  0  0  0  0  0  0  0  0  0  0
   21.5684   39.2618  -13.0027 H   0  0  0  0  0  0  0  0  0  0  0  0
   22.7995   43.1988  -11.3186 H   0  0  0  0  0  0  0  0  0  0  0  0
   21.7770   45.2946  -10.4698 H   0  0  0  0  0  0  0  0  0  0  0  0
   19.3120   45.4782  -10.2641 H   0  0  0  0  0  0  0  0  0  0  0  0
   18.8673   41.4966  -11.8301 H   0  0  0  0  0  0  0  0  0  0  0  0
   16.9656   42.6824  -11.2247 H   0  0  0  0  0  0  0  0  0  0  0  0
   17.0238   44.4187  -11.2666 H   0  0  0  0  0  0  0  0  0  0  0  0
   18.1327   41.8356   -8.7113 H   0  0  0  0  0  0  0  0  0  0  0  0
   16.5816   40.8231   -9.8959 H   0  0  0  0  0  0  0  0  0  0  0  0
   15.0118   41.0526  -10.6107 H   0  0  0  0  0  0  0  0  0  0  0  0
   15.5068   39.6881   -5.9784 H   0  0  0  0  0  0  0  0  0  0  0  0
   14.0746   39.9171   -6.9301 H   0  0  0  0  0  0  0  0  0  0  0  0
   16.5688   41.4550   -7.1214 H   0  0  0  0  0  0  0  0  0  0  0  0
   17.4519   38.7067   -9.2672 H   0  0  0  0  0  0  0  0  0  0  0  0
   17.7401   39.8640   -8.0014 H   0  0  0  0  0  0  0  0  0  0  0  0
   18.4597   37.2542   -5.6504 H   0  0  0  0  0  0  0  0  0  0  0  0
   17.2614   38.5326   -5.6403 H   0  0  0  0  0  0  0  0  0  0  0  0
   18.9110   38.8982   -6.0986 H   0  0  0  0  0  0  0  0  0  0  0  0
   15.4593   44.1100   -7.1750 H   0  0  0  0  0  0  0  0  0  0  0  0
   15.1295   41.9500   -6.5259 H   0  0  0  0  0  0  0  0  0  0  0  0
  1  2  1  0  0  0  0
  1 42  1  0  0  0  0
  1 43  1  0  0  0  0
  1 44  1  0  0  0  0
  2  3  1  0  0  0  0
  3  4  1  0  0  0  0
  3 45  1  0  0  0  0
  3 46  1  0  0  0  0
  4  9  1  0  0  0  0
  4  5  2  0  0  0  0
  5  6  1  0  0  0  0
  5 47  1  0  0  0  0
  6 25  1  0  0  0  0
  6  7  2  0  0  0  0
  7  8  1  0  0  0  0
  7 48  1  0  0  0  0
  8  9  2  0  0  0  0
  8 10  1  0  0  0  0
  9 49  1  0  0  0  0
 10 11  1  0  0  0  0
 10 50  1  0  0  0  0
 11 12  1  0  0  0  0
 11 51  1  0  0  0  0
 11 52  1  0  0  0  0
 12 13  1  0  0  0  0
 12 53  1  0  0  0  0
 12 54  1  0  0  0  0
 13 14  1  0  0  0  0
 13 55  1  0  0  0  0
 13 56  1  0  0  0  0
 14 15  1  0  0  0  0
 14 57  1  0  0  0  0
 14 58  1  0  0  0  0
 15 16  1  0  0  0  0
 16 21  1  0  0  0  0
 16 17  2  0  0  0  0
 17 18  1  0  0  0  0
 17 59  1  0  0  0  0
 18 19  2  0  0  0  0
 18 60  1  0  0  0  0
 19 20  1  0  0  0  0
 19 61  1  0  0  0  0
 20 21  2  0  0  0  0
 20 22  1  0  0  0  0
 21 62  1  0  0  0  0
 22 23  1  0  0  0  0
 22 63  1  0  0  0  0
 22 64  1  0  0  0  0
 23 38  1  1  0  0  0
 23 24  1  0  0  0  0
 23 27  1  0  0  0  0
 24 25  1  0  0  0  0
 24 65  1  0  0  0  0
 25 26  2  0  0  0  0
 27 39  1  6  0  0  0
 27 28  1  0  0  0  0
 27 37  1  0  0  0  0
 28 40  1  1  0  0  0
 28 33  1  0  0  0  0
 28 29  1  0  0  0  0
 29 30  1  0  0  0  0
 29 66  1  0  0  0  0
 29 67  1  0  0  0  0
 30 31  1  0  0  0  0
 31 41  1  1  0  0  0
 31 32  1  0  0  0  0
 31 34  1  0  0  0  0
 32 33  1  0  0  0  0
 32 68  1  0  0  0  0
 32 69  1  0  0  0  0
 33 70  1  0  0  0  0
 33 77  1  0  0  0  0
 34 35  1  0  0  0  0
 34 71  1  0  0  0  0
 34 72  1  0  0  0  0
 35 36  1  0  0  0  0
 36 73  1  0  0  0  0
 36 74  1  0  0  0  0
 36 75  1  0  0  0  0
 37 76  1  0  0  0  0
M  CHG  1  33   1
M  END
