BACE_16.smi:1
 OpenBabel10031817233D
Structure written by MMmdl.
 85 88  0  0  1  0  0  0  0  0999 V2000
   21.5614   38.6204   -9.4848 C   0  0  0  0  0  0  0  0  0  0  0  0
   20.6414   39.1184   -8.3533 C   0  0  0  0  0  0  0  0  0  0  0  0
   21.2792   38.8186   -6.9875 C   0  0  0  0  0  0  0  0  0  0  0  0
   19.1884   38.6323   -8.4480 C   0  0  0  0  0  0  0  0  0  0  0  0
   18.7243   37.8412   -9.5233 C   0  0  0  0  0  0  0  0  0  0  0  0
   17.3594   37.5086   -9.6260 C   0  0  0  0  0  0  0  0  0  0  0  0
   16.4304   37.9805   -8.6873 C   0  0  0  0  0  0  0  0  0  0  0  0
   16.8764   38.7600   -7.6067 C   0  0  0  0  0  0  0  0  0  0  0  0
   18.2523   39.0466   -7.4715 C   0  0  0  0  0  0  0  0  0  0  0  0
   15.8666   39.2837   -6.5936 C   0  0  0  0  0  0  0  0  0  0  0  0
   15.2606   40.5840   -6.9680 N   0  3  0  0  0  0  0  0  0  0  0  0
   16.1985   41.6180   -7.4750 C   0  0  0  0  0  0  0  0  0  0  0  0
   16.1030   41.7260   -9.0137 C   0  0  2  0  0  0  0  0  0  0  0  0
   17.0943   42.6810   -9.7285 C   0  0  2  0  0  0  0  0  0  0  0  0
   18.5914   42.3040   -9.5393 C   0  0  0  0  0  0  0  0  0  0  0  0
   19.3963   43.1764   -8.5772 C   0  0  0  0  0  0  0  0  0  0  0  0
   19.6220   42.7703   -7.2458 C   0  0  0  0  0  0  0  0  0  0  0  0
   20.3385   43.5965   -6.3634 C   0  0  0  0  0  0  0  0  0  0  0  0
   20.8588   44.8249   -6.8084 C   0  0  0  0  0  0  0  0  0  0  0  0
   20.6816   45.2314   -8.1541 C   0  0  0  0  0  0  0  0  0  0  0  0
   19.9493   44.3979   -9.0236 C   0  0  0  0  0  0  0  0  0  0  0  0
   21.1846   46.3988   -8.6927 O   0  0  0  0  0  0  0  0  0  0  0  0
   21.8132   47.3476   -7.8372 C   0  0  0  0  0  0  0  0  0  0  0  0
   20.7556   48.1840   -7.1025 C   0  0  0  0  0  0  0  0  0  0  0  0
   20.0865   49.2119   -8.0285 C   0  0  0  0  0  0  0  0  0  0  0  0
   18.7487   49.7307   -7.4736 C   0  0  0  0  0  0  0  0  0  0  0  0
   17.7429   48.7201   -7.4963 O   0  0  0  0  0  0  0  0  0  0  0  0
   17.3123   48.2751   -8.7289 C   0  0  0  0  0  0  0  0  0  0  0  0
   16.9193   46.9281   -8.8288 C   0  0  0  0  0  0  0  0  0  0  0  0
   16.5283   46.3816  -10.0713 C   0  0  0  0  0  0  0  0  0  0  0  0
   16.4918   47.2103  -11.2138 C   0  0  0  0  0  0  0  0  0  0  0  0
   16.8598   48.5737  -11.1283 C   0  0  0  0  0  0  0  0  0  0  0  0
   17.2643   49.0931   -9.8828 C   0  0  0  0  0  0  0  0  0  0  0  0
   16.8246   49.4623  -12.1832 O   0  0  0  0  0  0  0  0  0  0  0  0
   16.6956   48.9711  -13.5121 C   0  0  0  0  0  0  0  0  0  0  0  0
   15.2311   48.9572  -13.9607 C   0  0  0  0  0  0  0  0  0  0  0  0
   14.3237   48.5433  -13.2405 O   0  0  0  0  0  0  0  0  0  0  0  0
   14.9361   49.4310  -15.3764 C   0  0  0  0  0  0  0  0  0  0  0  0
   16.1593   44.9349  -10.2005 C   0  0  0  0  0  0  0  0  0  0  0  0
   15.3562   44.5659  -11.0563 O   0  0  0  0  0  0  0  0  0  0  0  0
   16.8614   44.0920   -9.4266 N   0  0  0  0  0  0  0  0  0  0  0  0
   14.7792   42.0544   -9.3765 O   0  0  0  0  0  0  0  0  0  0  0  0
   16.2773   40.7361   -9.4318 H   0  0  0  0  0  0  0  0  0  0  0  0
   16.9075   42.5308  -10.7924 H   0  0  0  0  0  0  0  0  0  0  0  0
   21.1891   38.9145  -10.4662 H   0  0  0  0  0  0  0  0  0  0  0  0
   21.6686   37.5358   -9.4697 H   0  0  0  0  0  0  0  0  0  0  0  0
   22.5598   39.0433   -9.3868 H   0  0  0  0  0  0  0  0  0  0  0  0
   20.6015   40.2029   -8.4474 H   0  0  0  0  0  0  0  0  0  0  0  0
   20.7295   39.2568   -6.1546 H   0  0  0  0  0  0  0  0  0  0  0  0
   22.2967   39.2060   -6.9424 H   0  0  0  0  0  0  0  0  0  0  0  0
   21.3345   37.7483   -6.8247 H   0  0  0  0  0  0  0  0  0  0  0  0
   19.3877   37.4897  -10.2980 H   0  0  0  0  0  0  0  0  0  0  0  0
   17.0050   36.9025  -10.4393 H   0  0  0  0  0  0  0  0  0  0  0  0
   15.3819   37.7382   -8.7878 H   0  0  0  0  0  0  0  0  0  0  0  0
   18.5763   39.6445   -6.6346 H   0  0  0  0  0  0  0  0  0  0  0  0
   15.0719   38.5531   -6.4483 H   0  0  0  0  0  0  0  0  0  0  0  0
   16.3650   39.3876   -5.6401 H   0  0  0  0  0  0  0  0  0  0  0  0
   14.5784   40.4256   -7.6964 H   0  0  0  0  0  0  0  0  0  0  0  0
   16.0601   42.5484   -6.9356 H   0  0  0  0  0  0  0  0  0  0  0  0
   17.2154   41.3565   -7.2279 H   0  0  0  0  0  0  0  0  0  0  0  0
   18.6936   41.2570   -9.2708 H   0  0  0  0  0  0  0  0  0  0  0  0
   19.0846   42.3785  -10.5097 H   0  0  0  0  0  0  0  0  0  0  0  0
   19.2611   41.8179   -6.8875 H   0  0  0  0  0  0  0  0  0  0  0  0
   20.5021   43.2818   -5.3414 H   0  0  0  0  0  0  0  0  0  0  0  0
   21.4029   45.4237   -6.0944 H   0  0  0  0  0  0  0  0  0  0  0  0
   19.8012   44.7163  -10.0455 H   0  0  0  0  0  0  0  0  0  0  0  0
   22.5140   46.8767   -7.1499 H   0  0  0  0  0  0  0  0  0  0  0  0
   22.4255   48.0057   -8.4540 H   0  0  0  0  0  0  0  0  0  0  0  0
   20.0073   47.5243   -6.6622 H   0  0  0  0  0  0  0  0  0  0  0  0
   21.2232   48.7127   -6.2709 H   0  0  0  0  0  0  0  0  0  0  0  0
   20.7669   50.0513   -8.1730 H   0  0  0  0  0  0  0  0  0  0  0  0
   19.9344   48.7810   -9.0178 H   0  0  0  0  0  0  0  0  0  0  0  0
   18.8950   50.0247   -6.4398 H   0  0  0  0  0  0  0  0  0  0  0  0
   18.4226   50.6368   -7.9830 H   0  0  0  0  0  0  0  0  0  0  0  0
   16.9535   46.3126   -7.9409 H   0  0  0  0  0  0  0  0  0  0  0  0
   16.1707   46.7829  -12.1511 H   0  0  0  0  0  0  0  0  0  0  0  0
   17.5352   50.1353   -9.8383 H   0  0  0  0  0  0  0  0  0  0  0  0
   17.2494   49.6421  -14.1664 H   0  0  0  0  0  0  0  0  0  0  0  0
   17.1440   47.9857  -13.6352 H   0  0  0  0  0  0  0  0  0  0  0  0
   15.8080   49.3005  -16.0221 H   0  0  0  0  0  0  0  0  0  0  0  0
   14.6629   50.4891  -15.3655 H   0  0  0  0  0  0  0  0  0  0  0  0
   14.0996   48.8697  -15.7987 H   0  0  0  0  0  0  0  0  0  0  0  0
   17.5068   44.5079   -8.7699 H   0  0  0  0  0  0  0  0  0  0  0  0
   14.5987   42.9381   -9.0771 H   0  0  0  0  0  0  0  0  0  0  0  0
   14.7564   40.9493   -6.1593 H   0  0  0  0  0  0  0  0  0  0  0  0
  1  2  1  0  0  0  0
  1 45  1  0  0  0  0
  1 46  1  0  0  0  0
  1 47  1  0  0  0  0
  2  3  1  0  0  0  0
  2  4  1  0  0  0  0
  2 48  1  0  0  0  0
  3 49  1  0  0  0  0
  3 50  1  0  0  0  0
  3 51  1  0  0  0  0
  4  9  1  0  0  0  0
  4  5  2  0  0  0  0
  5  6  1  0  0  0  0
  5 52  1  0  0  0  0
  6  7  2  0  0  0  0
  6 53  1  0  0  0  0
  7  8  1  0  0  0  0
  7 54  1  0  0  0  0
  8  9  2  0  0  0  0
  8 10  1  0  0  0  0
  9 55  1  0  0  0  0
 10 11  1  0  0  0  0
 10 56  1  0  0  0  0
 10 57  1  0  0  0  0
 11 12  1  0  0  0  0
 11 58  1  0  0  0  0
 11 85  1  0  0  0  0
 12 13  1  0  0  0  0
 12 59  1  0  0  0  0
 12 60  1  0  0  0  0
 13 43  1  6  0  0  0
 13 14  1  0  0  0  0
 13 42  1  0  0  0  0
 14 44  1  6  0  0  0
 14 41  1  0  0  0  0
 14 15  1  0  0  0  0
 15 16  1  0  0  0  0
 15 61  1  0  0  0  0
 15 62  1  0  0  0  0
 16 21  1  0  0  0  0
 16 17  2  0  0  0  0
 17 18  1  0  0  0  0
 17 63  1  0  0  0  0
 18 19  2  0  0  0  0
 18 64  1  0  0  0  0
 19 20  1  0  0  0  0
 19 65  1  0  0  0  0
 20 21  2  0  0  0  0
 20 22  1  0  0  0  0
 21 66  1  0  0  0  0
 22 23  1  0  0  0  0
 23 24  1  0  0  0  0
 23 67  1  0  0  0  0
 23 68  1  0  0  0  0
 24 25  1  0  0  0  0
 24 69  1  0  0  0  0
 24 70  1  0  0  0  0
 25 26  1  0  0  0  0
 25 71  1  0  0  0  0
 25 72  1  0  0  0  0
 26 27  1  0  0  0  0
 26 73  1  0  0  0  0
 26 74  1  0  0  0  0
 27 28  1  0  0  0  0
 28 33  1  0  0  0  0
 28 29  2  0  0  0  0
 29 30  1  0  0  0  0
 29 75  1  0  0  0  0
 30 31  2  0  0  0  0
 30 39  1  0  0  0  0
 31 32  1  0  0  0  0
 31 76  1  0  0  0  0
 32 33  2  0  0  0  0
 32 34  1  0  0  0  0
 33 77  1  0  0  0  0
 34 35  1  0  0  0  0
 35 36  1  0  0  0  0
 35 78  1  0  0  0  0
 35 79  1  0  0  0  0
 36 37  2  0  0  0  0
 36 38  1  0  0  0  0
 38 80  1  0  0  0  0
 38 81  1  0  0  0  0
 38 82  1  0  0  0  0
 39 40  2  0  0  0  0
 39 41  1  0  0  0  0
 41 83  1  0  0  0  0
 42 84  1  0  0  0  0
M  CHG  1  11   1
M  END
