BACE_12.smi:1
 OpenBabel10031817233D
Structure written by MMmdl.
 79 82  0  0  1  0  0  0  0  0999 V2000
   29.3967   41.3534  -13.4771 C   0  0  0  0  0  0  0  0  0  0  0  0
   29.5999   42.3091  -12.2977 C   0  0  0  0  0  0  0  0  0  0  0  0
   30.4659   41.6464  -11.2194 C   0  0  0  0  0  0  0  0  0  0  0  0
   28.2916   42.8528  -11.7262 C   0  0  0  0  0  0  0  0  0  0  0  0
   28.0339   44.2404  -11.7784 C   0  0  0  0  0  0  0  0  0  0  0  0
   26.8804   44.7731  -11.1770 C   0  0  0  0  0  0  0  0  0  0  0  0
   25.9716   43.9266  -10.5171 C   0  0  0  0  0  0  0  0  0  0  0  0
   26.1880   42.5321  -10.4868 C   0  0  0  0  0  0  0  0  0  0  0  0
   27.3511   42.0053  -11.0964 C   0  0  0  0  0  0  0  0  0  0  0  0
   25.2245   41.6219   -9.7270 C   0  0  0  0  0  0  0  0  0  0  0  0
   23.9659   41.3029  -10.4404 N   0  3  0  0  0  0  0  0  0  0  0  0
   23.1494   42.4639  -10.8700 C   0  0  0  0  0  0  0  0  0  0  0  0
   21.7091   42.1241  -11.3242 C   0  0  2  0  0  0  0  0  0  0  0  0
   20.8188   41.5103  -10.2108 C   0  0  2  0  0  0  0  0  0  0  0  0
   20.8982   39.9632  -10.1090 C   0  0  0  0  0  0  0  0  0  0  0  0
   19.9207   39.3765   -9.1104 C   0  0  0  0  0  0  0  0  0  0  0  0
   20.1045   39.6155   -7.7333 C   0  0  0  0  0  0  0  0  0  0  0  0
   19.1703   39.1224   -6.8050 C   0  0  0  0  0  0  0  0  0  0  0  0
   18.0558   38.3920   -7.2500 C   0  0  0  0  0  0  0  0  0  0  0  0
   17.8758   38.1273   -8.6235 C   0  0  0  0  0  0  0  0  0  0  0  0
   18.8164   38.6166   -9.5531 C   0  0  0  0  0  0  0  0  0  0  0  0
   16.6645   37.3365   -9.0899 C   0  0  0  0  0  0  0  0  0  0  0  0
   15.3613   38.1532   -9.0433 C   0  0  0  0  0  0  0  0  0  0  0  0
   15.2917   39.3076  -10.0557 C   0  0  0  0  0  0  0  0  0  0  0  0
   14.4591   40.4812   -9.5098 C   0  0  0  0  0  0  0  0  0  0  0  0
   14.2788   41.5648  -10.4670 N   0  0  0  0  0  0  0  0  0  0  0  0
   15.2523   42.5565  -10.6256 C   0  0  0  0  0  0  0  0  0  0  0  0
   16.5880   42.3895  -10.2065 C   0  0  0  0  0  0  0  0  0  0  0  0
   17.5286   43.3932  -10.5028 C   0  0  0  0  0  0  0  0  0  0  0  0
   17.0778   44.5703  -11.1342 C   0  0  0  0  0  0  0  0  0  0  0  0
   15.7090   44.6697  -11.4851 C   0  0  0  0  0  0  0  0  0  0  0  0
   14.8280   43.6744  -11.2489 N   0  0  0  0  0  0  0  0  0  0  0  0
   15.1395   45.7558  -12.1141 O   0  0  0  0  0  0  0  0  0  0  0  0
   15.9824   46.8567  -12.4170 C   0  0  0  0  0  0  0  0  0  0  0  0
   18.9759   43.2031  -10.1672 C   0  0  0  0  0  0  0  0  0  0  0  0
   19.6871   44.1493   -9.8282 O   0  0  0  0  0  0  0  0  0  0  0  0
   19.4336   41.9551  -10.3599 N   0  0  0  0  0  0  0  0  0  0  0  0
   21.6600   41.3291  -12.4957 O   0  0  0  0  0  0  0  0  0  0  0  0
   21.2949   43.0838  -11.6316 H   0  0  0  0  0  0  0  0  0  0  0  0
   21.1492   41.9155   -9.2512 H   0  0  0  0  0  0  0  0  0  0  0  0
   28.8599   41.8342  -14.2922 H   0  0  0  0  0  0  0  0  0  0  0  0
   28.8594   40.4535  -13.1819 H   0  0  0  0  0  0  0  0  0  0  0  0
   30.3539   41.0288  -13.8844 H   0  0  0  0  0  0  0  0  0  0  0  0
   30.1687   43.1600  -12.6755 H   0  0  0  0  0  0  0  0  0  0  0  0
   30.6450   42.3168  -10.3772 H   0  0  0  0  0  0  0  0  0  0  0  0
   31.4337   41.3690  -11.6398 H   0  0  0  0  0  0  0  0  0  0  0  0
   30.0009   40.7365  -10.8401 H   0  0  0  0  0  0  0  0  0  0  0  0
   28.7394   44.9055  -12.2549 H   0  0  0  0  0  0  0  0  0  0  0  0
   26.7035   45.8392  -11.2064 H   0  0  0  0  0  0  0  0  0  0  0  0
   25.1092   44.3575  -10.0289 H   0  0  0  0  0  0  0  0  0  0  0  0
   27.5488   40.9500  -11.0493 H   0  0  0  0  0  0  0  0  0  0  0  0
   25.7239   40.6771   -9.5061 H   0  0  0  0  0  0  0  0  0  0  0  0
   24.9805   42.0806   -8.7685 H   0  0  0  0  0  0  0  0  0  0  0  0
   24.1966   40.7836  -11.2828 H   0  0  0  0  0  0  0  0  0  0  0  0
   23.0889   43.1749  -10.0439 H   0  0  0  0  0  0  0  0  0  0  0  0
   23.6656   42.9769  -11.6825 H   0  0  0  0  0  0  0  0  0  0  0  0
   20.6977   39.5025  -11.0770 H   0  0  0  0  0  0  0  0  0  0  0  0
   21.9010   39.6411   -9.8295 H   0  0  0  0  0  0  0  0  0  0  0  0
   20.9457   40.1959   -7.3823 H   0  0  0  0  0  0  0  0  0  0  0  0
   19.2927   39.3259   -5.7500 H   0  0  0  0  0  0  0  0  0  0  0  0
   17.3281   38.0471   -6.5291 H   0  0  0  0  0  0  0  0  0  0  0  0
   18.6728   38.4270  -10.6072 H   0  0  0  0  0  0  0  0  0  0  0  0
   16.8337   36.9508  -10.0930 H   0  0  0  0  0  0  0  0  0  0  0  0
   16.5628   36.4661   -8.4419 H   0  0  0  0  0  0  0  0  0  0  0  0
   14.5123   37.5012   -9.2404 H   0  0  0  0  0  0  0  0  0  0  0  0
   15.2220   38.5244   -8.0263 H   0  0  0  0  0  0  0  0  0  0  0  0
   16.2944   39.6304  -10.3185 H   0  0  0  0  0  0  0  0  0  0  0  0
   14.8601   38.9510  -10.9884 H   0  0  0  0  0  0  0  0  0  0  0  0
   13.4684   40.1136   -9.2441 H   0  0  0  0  0  0  0  0  0  0  0  0
   14.8966   40.8683   -8.5884 H   0  0  0  0  0  0  0  0  0  0  0  0
   13.3216   41.8366  -10.6287 H   0  0  0  0  0  0  0  0  0  0  0  0
   16.9060   41.5096   -9.6719 H   0  0  0  0  0  0  0  0  0  0  0  0
   17.7828   45.3584  -11.3471 H   0  0  0  0  0  0  0  0  0  0  0  0
   15.3961   47.6348  -12.9062 H   0  0  0  0  0  0  0  0  0  0  0  0
   16.7836   46.5706  -13.0983 H   0  0  0  0  0  0  0  0  0  0  0  0
   16.4123   47.2887  -11.5114 H   0  0  0  0  0  0  0  0  0  0  0  0
   18.7626   41.2553  -10.6410 H   0  0  0  0  0  0  0  0  0  0  0  0
   22.5409   41.2042  -12.8419 H   0  0  0  0  0  0  0  0  0  0  0  0
   23.4141   40.7036   -9.8440 H   0  0  0  0  0  0  0  0  0  0  0  0
  1  2  1  0  0  0  0
  1 41  1  0  0  0  0
  1 42  1  0  0  0  0
  1 43  1  0  0  0  0
  2  3  1  0  0  0  0
  2  4  1  0  0  0  0
  2 44  1  0  0  0  0
  3 45  1  0  0  0  0
  3 46  1  0  0  0  0
  3 47  1  0  0  0  0
  4  9  1  0  0  0  0
  4  5  2  0  0  0  0
  5  6  1  0  0  0  0
  5 48  1  0  0  0  0
  6  7  2  0  0  0  0
  6 49  1  0  0  0  0
  7  8  1  0  0  0  0
  7 50  1  0  0  0  0
  8  9  2  0  0  0  0
  8 10  1  0  0  0  0
  9 51  1  0  0  0  0
 10 11  1  0  0  0  0
 10 52  1  0  0  0  0
 10 53  1  0  0  0  0
 11 12  1  0  0  0  0
 11 54  1  0  0  0  0
 11 79  1  0  0  0  0
 12 13  1  0  0  0  0
 12 55  1  0  0  0  0
 12 56  1  0  0  0  0
 13 39  1  6  0  0  0
 13 14  1  0  0  0  0
 13 38  1  0  0  0  0
 14 40  1  1  0  0  0
 14 37  1  0  0  0  0
 14 15  1  0  0  0  0
 15 16  1  0  0  0  0
 15 57  1  0  0  0  0
 15 58  1  0  0  0  0
 16 21  1  0  0  0  0
 16 17  2  0  0  0  0
 17 18  1  0  0  0  0
 17 59  1  0  0  0  0
 18 19  2  0  0  0  0
 18 60  1  0  0  0  0
 19 20  1  0  0  0  0
 19 61  1  0  0  0  0
 20 21  2  0  0  0  0
 20 22  1  0  0  0  0
 21 62  1  0  0  0  0
 22 23  1  0  0  0  0
 22 63  1  0  0  0  0
 22 64  1  0  0  0  0
 23 24  1  0  0  0  0
 23 65  1  0  0  0  0
 23 66  1  0  0  0  0
 24 25  1  0  0  0  0
 24 67  1  0  0  0  0
 24 68  1  0  0  0  0
 25 26  1  0  0  0  0
 25 69  1  0  0  0  0
 25 70  1  0  0  0  0
 26 27  1  0  0  0  0
 26 71  1  0  0  0  0
 27 32  1  0  0  0  0
 27 28  2  0  0  0  0
 28 29  1  0  0  0  0
 28 72  1  0  0  0  0
 29 30  2  0  0  0  0
 29 35  1  0  0  0  0
 30 31  1  0  0  0  0
 30 73  1  0  0  0  0
 31 32  2  0  0  0  0
 31 33  1  0  0  0  0
 33 34  1  0  0  0  0
 34 74  1  0  0  0  0
 34 75  1  0  0  0  0
 34 76  1  0  0  0  0
 35 36  2  0  0  0  0
 35 37  1  0  0  0  0
 37 77  1  0  0  0  0
 38 78  1  0  0  0  0
M  CHG  1  11   1
M  END
