BACE_18.smi:1
 OpenBabel10031817233D
Structure written by MMmdl.
 66 67  0  0  1  0  0  0  0  0999 V2000
   17.9162   41.9619   -7.6393 O   0  0  0  0  0  0  0  0  0  0  0  0
   17.1017   40.9786   -8.2439 C   0  0  0  0  0  0  0  0  0  0  0  0
   17.4722   40.7444   -9.7277 C   0  0  2  0  0  0  0  0  0  0  0  0
   16.4449   39.9495  -10.2959 O   0  0  0  0  0  0  0  0  0  0  0  0
   18.8399   40.0351   -9.9691 C   0  0  1  0  0  0  0  0  0  0  0  0
   19.3464   40.1014  -11.3556 N   0  0  0  0  0  0  0  0  0  0  0  0
   19.6301   41.1289  -12.1803 C   0  0  0  0  0  0  0  0  0  0  0  0
   20.2380   40.9505  -13.2341 O   0  0  0  0  0  0  0  0  0  0  0  0
   19.9456   40.4085   -8.9413 C   0  0  0  0  0  0  0  0  0  0  0  0
   21.3103   39.6799   -9.0800 C   0  0  2  0  0  0  0  0  0  0  0  0
   21.1410   38.1562   -9.1950 C   0  0  0  0  0  0  0  0  0  0  0  0
   22.2472   39.9688   -7.8814 C   0  0  0  0  0  0  0  0  0  0  0  0
   22.7735   41.4088   -7.7545 C   0  0  0  0  0  0  0  0  0  0  0  0
   23.8409   41.7661   -8.8060 C   0  0  0  0  0  0  0  0  0  0  0  0
   24.4593   43.1667   -8.6202 C   0  0  0  0  0  0  0  0  0  0  0  0
   23.9000   44.2354   -9.5741 C   0  0  0  0  0  0  0  0  0  0  0  0
   22.4480   44.6419   -9.2832 C   0  0  0  0  0  0  0  0  0  0  0  0
   21.8656   45.5329  -10.3903 C   0  0  0  0  0  0  0  0  0  0  0  0
   20.4539   45.6733  -10.2784 O   0  0  0  0  0  0  0  0  0  0  0  0
   19.6431   44.7152  -10.8526 C   0  0  0  0  0  0  0  0  0  0  0  0
   20.0785   43.4221  -11.2408 C   0  0  0  0  0  0  0  0  0  0  0  0
   19.1756   42.5089  -11.8180 C   0  0  0  0  0  0  0  0  0  0  0  0
   18.2909   45.0638  -11.0475 C   0  0  0  0  0  0  0  0  0  0  0  0
   17.3876   44.1791  -11.6751 C   0  0  0  0  0  0  0  0  0  0  0  0
   17.8483   42.9073  -12.0782 C   0  0  0  0  0  0  0  0  0  0  0  0
   15.9330   44.5505  -11.7940 C   0  0  0  0  0  0  0  0  0  0  0  0
   15.6355   45.5938  -12.3812 O   0  0  0  0  0  0  0  0  0  0  0  0
   14.9996   43.7368  -11.2424 N   0  0  0  0  0  0  0  0  0  0  0  0
   15.4017   42.5679  -10.4575 C   0  0  0  0  0  0  0  0  0  0  0  0
   13.5548   43.9848  -11.2698 C   0  0  0  0  0  0  0  0  0  0  0  0
   17.4597   41.7154  -10.2181 H   0  0  0  0  0  0  0  0  0  0  0  0
   18.6230   38.9771   -9.8277 H   0  0  0  0  0  0  0  0  0  0  0  0
   21.7944   40.0225   -9.9946 H   0  0  0  0  0  0  0  0  0  0  0  0
   17.8280   41.8946   -6.7005 H   0  0  0  0  0  0  0  0  0  0  0  0
   17.1468   40.0547   -7.6643 H   0  0  0  0  0  0  0  0  0  0  0  0
   16.0810   41.3549   -8.1699 H   0  0  0  0  0  0  0  0  0  0  0  0
   16.3559   39.1263   -9.8015 H   0  0  0  0  0  0  0  0  0  0  0  0
   19.6281   39.2064  -11.7242 H   0  0  0  0  0  0  0  0  0  0  0  0
   20.1045   41.4856   -8.9745 H   0  0  0  0  0  0  0  0  0  0  0  0
   19.5750   40.1899   -7.9428 H   0  0  0  0  0  0  0  0  0  0  0  0
   20.6484   37.7417   -8.3149 H   0  0  0  0  0  0  0  0  0  0  0  0
   22.1048   37.6568   -9.3043 H   0  0  0  0  0  0  0  0  0  0  0  0
   20.5443   37.8866  -10.0631 H   0  0  0  0  0  0  0  0  0  0  0  0
   21.7247   39.7075   -6.9593 H   0  0  0  0  0  0  0  0  0  0  0  0
   23.1071   39.2988   -7.9206 H   0  0  0  0  0  0  0  0  0  0  0  0
   21.9456   42.1130   -7.7636 H   0  0  0  0  0  0  0  0  0  0  0  0
   23.2246   41.5104   -6.7667 H   0  0  0  0  0  0  0  0  0  0  0  0
   24.6409   41.0288   -8.7350 H   0  0  0  0  0  0  0  0  0  0  0  0
   23.4389   41.6621   -9.8147 H   0  0  0  0  0  0  0  0  0  0  0  0
   24.3748   43.4960   -7.5845 H   0  0  0  0  0  0  0  0  0  0  0  0
   25.5287   43.0846   -8.8118 H   0  0  0  0  0  0  0  0  0  0  0  0
   24.5284   45.1259   -9.5242 H   0  0  0  0  0  0  0  0  0  0  0  0
   23.9853   43.8693  -10.5988 H   0  0  0  0  0  0  0  0  0  0  0  0
   21.8365   43.7506   -9.1826 H   0  0  0  0  0  0  0  0  0  0  0  0
   22.3835   45.1527   -8.3218 H   0  0  0  0  0  0  0  0  0  0  0  0
   22.3101   46.5260  -10.3210 H   0  0  0  0  0  0  0  0  0  0  0  0
   22.1343   45.1657  -11.3799 H   0  0  0  0  0  0  0  0  0  0  0  0
   21.0999   43.1021  -11.1028 H   0  0  0  0  0  0  0  0  0  0  0  0
   17.9494   46.0348  -10.7191 H   0  0  0  0  0  0  0  0  0  0  0  0
   17.1645   42.2025  -12.5314 H   0  0  0  0  0  0  0  0  0  0  0  0
   16.3208   42.1172  -10.8360 H   0  0  0  0  0  0  0  0  0  0  0  0
   14.6376   41.7931  -10.4973 H   0  0  0  0  0  0  0  0  0  0  0  0
   15.5610   42.8449   -9.4159 H   0  0  0  0  0  0  0  0  0  0  0  0
   13.3209   45.0503  -11.2876 H   0  0  0  0  0  0  0  0  0  0  0  0
   13.0685   43.5720  -10.3855 H   0  0  0  0  0  0  0  0  0  0  0  0
   13.0994   43.5183  -12.1434 H   0  0  0  0  0  0  0  0  0  0  0  0
  1  2  1  0  0  0  0
  1 34  1  0  0  0  0
  2  3  1  0  0  0  0
  2 35  1  0  0  0  0
  2 36  1  0  0  0  0
  3 31  1  6  0  0  0
  3  4  1  0  0  0  0
  3  5  1  0  0  0  0
  4 37  1  0  0  0  0
  5 32  1  1  0  0  0
  5  6  1  0  0  0  0
  5  9  1  0  0  0  0
  6  7  1  0  0  0  0
  6 38  1  0  0  0  0
  7 22  1  0  0  0  0
  7  8  2  0  0  0  0
  9 10  1  0  0  0  0
  9 39  1  0  0  0  0
  9 40  1  0  0  0  0
 10 33  1  6  0  0  0
 10 11  1  0  0  0  0
 10 12  1  0  0  0  0
 11 41  1  0  0  0  0
 11 42  1  0  0  0  0
 11 43  1  0  0  0  0
 12 13  1  0  0  0  0
 12 44  1  0  0  0  0
 12 45  1  0  0  0  0
 13 14  1  0  0  0  0
 13 46  1  0  0  0  0
 13 47  1  0  0  0  0
 14 15  1  0  0  0  0
 14 48  1  0  0  0  0
 14 49  1  0  0  0  0
 15 16  1  0  0  0  0
 15 50  1  0  0  0  0
 15 51  1  0  0  0  0
 16 17  1  0  0  0  0
 16 52  1  0  0  0  0
 16 53  1  0  0  0  0
 17 18  1  0  0  0  0
 17 54  1  0  0  0  0
 17 55  1  0  0  0  0
 18 19  1  0  0  0  0
 18 56  1  0  0  0  0
 18 57  1  0  0  0  0
 19 20  1  0  0  0  0
 20 21  1  0  0  0  0
 20 23  2  0  0  0  0
 21 22  2  0  0  0  0
 21 58  1  0  0  0  0
 22 25  1  0  0  0  0
 23 24  1  0  0  0  0
 23 59  1  0  0  0  0
 24 25  2  0  0  0  0
 24 26  1  0  0  0  0
 25 60  1  0  0  0  0
 26 27  2  0  0  0  0
 26 28  1  0  0  0  0
 28 29  1  0  0  0  0
 28 30  1  0  0  0  0
 29 61  1  0  0  0  0
 29 62  1  0  0  0  0
 29 63  1  0  0  0  0
 30 64  1  0  0  0  0
 30 65  1  0  0  0  0
 30 66  1  0  0  0  0
M  END
