BACE_1.smi:1
 OpenBabel10031817233D
Structure written by MMmdl.
 87 88  0  0  1  0  0  0  0  0999 V2000
   24.4457   46.5562  -15.9768 C   0  0  0  0  0  0  0  0  0  0  0  0
   23.9911   46.4967  -14.5182 C   0  0  0  0  0  0  0  0  0  0  0  0
   24.4600   45.2348  -13.7785 C   0  0  0  0  0  0  0  0  0  0  0  0
   23.9900   45.2567  -12.3147 C   0  0  0  0  0  0  0  0  0  0  0  0
   24.3291   44.0444  -11.5786 N   0  0  0  0  0  0  0  0  0  0  0  0
   25.5426   43.7206  -11.1130 C   0  0  0  0  0  0  0  0  0  0  0  0
   26.5657   44.3105  -11.4602 O   0  0  0  0  0  0  0  0  0  0  0  0
   25.6300   42.6163  -10.0426 C   0  0  2  0  0  0  0  0  0  0  0  0
   26.3548   41.3563  -10.5465 C   0  0  0  0  0  0  0  0  0  0  0  0
   24.3203   42.3369   -9.2515 C   0  0  0  0  0  0  0  0  0  0  0  0
   23.3201   41.3009   -9.8279 C   0  0  1  0  0  0  0  0  0  0  0  0
   22.2052   40.9662   -8.8118 C   0  0  2  0  0  0  0  0  0  0  0  0
   21.4233   39.6784   -9.1619 C   0  0  0  0  0  0  0  0  0  0  0  0
   20.3584   39.2728   -8.1116 C   0  0  1  0  0  0  0  0  0  0  0  0
   19.3377   38.2757   -8.6971 C   0  0  0  0  0  0  0  0  0  0  0  0
   18.1271   37.9514   -7.7890 C   0  0  0  0  0  0  0  0  0  0  0  0
   17.3511   39.1639   -7.2331 C   0  0  0  0  0  0  0  0  0  0  0  0
   16.7868   40.1011   -8.3099 C   0  0  0  0  0  0  0  0  0  0  0  0
   16.0964   41.3449   -7.7145 C   0  0  0  0  0  0  0  0  0  0  0  0
   15.6813   42.2825   -8.7720 N   0  0  0  0  0  0  0  0  0  0  0  0
   16.1932   43.5288   -8.9759 C   0  0  0  0  0  0  0  0  0  0  0  0
   15.6561   44.3463   -9.7265 O   0  0  0  0  0  0  0  0  0  0  0  0
   17.4399   43.9608   -8.2473 C   0  0  0  0  0  0  0  0  0  0  0  0
   18.6299   43.2017   -8.2846 C   0  0  0  0  0  0  0  0  0  0  0  0
   19.7858   43.6349   -7.5930 C   0  0  0  0  0  0  0  0  0  0  0  0
   19.7489   44.8459   -6.8698 C   0  0  0  0  0  0  0  0  0  0  0  0
   18.5796   45.6428   -6.8577 C   0  0  0  0  0  0  0  0  0  0  0  0
   17.4435   45.1948   -7.5628 C   0  0  0  0  0  0  0  0  0  0  0  0
   18.4601   46.8243   -6.1592 O   0  0  0  0  0  0  0  0  0  0  0  0
   19.6105   47.6506   -6.0057 C   0  0  0  0  0  0  0  0  0  0  0  0
   19.9230   48.3768   -7.3211 C   0  0  0  0  0  0  0  0  0  0  0  0
   21.0159   42.7727   -7.5529 C   0  0  0  0  0  0  0  0  0  0  0  0
   21.7245   42.7254   -6.5475 O   0  0  0  0  0  0  0  0  0  0  0  0
   21.2722   42.0858   -8.6773 N   0  0  0  0  0  0  0  0  0  0  0  0
   14.4748   41.8462   -9.4966 C   0  0  0  0  0  0  0  0  0  0  0  0
   14.7541   41.5314  -10.9753 C   0  0  0  0  0  0  0  0  0  0  0  0
   21.0053   38.7391   -6.8203 C   0  0  0  0  0  0  0  0  0  0  0  0
   22.7370   41.7466  -11.0428 O   0  0  0  0  0  0  0  0  0  0  0  0
   26.3036   43.0585   -9.3074 H   0  0  0  0  0  0  0  0  0  0  0  0
   23.8550   40.3759  -10.0393 H   0  0  0  0  0  0  0  0  0  0  0  0
   22.7001   40.7827   -7.8601 H   0  0  0  0  0  0  0  0  0  0  0  0
   19.7981   40.1658   -7.8458 H   0  0  0  0  0  0  0  0  0  0  0  0
   24.0923   47.4673  -16.4572 H   0  0  0  0  0  0  0  0  0  0  0  0
   24.0562   45.7176  -16.5500 H   0  0  0  0  0  0  0  0  0  0  0  0
   25.5320   46.5517  -16.0401 H   0  0  0  0  0  0  0  0  0  0  0  0
   24.3557   47.3774  -13.9903 H   0  0  0  0  0  0  0  0  0  0  0  0
   22.9065   46.5518  -14.4819 H   0  0  0  0  0  0  0  0  0  0  0  0
   24.0601   44.3473  -14.2714 H   0  0  0  0  0  0  0  0  0  0  0  0
   25.5498   45.1633  -13.8270 H   0  0  0  0  0  0  0  0  0  0  0  0
   24.3987   46.1262  -11.7948 H   0  0  0  0  0  0  0  0  0  0  0  0
   22.9057   45.3594  -12.2806 H   0  0  0  0  0  0  0  0  0  0  0  0
   23.5596   43.4512  -11.2777 H   0  0  0  0  0  0  0  0  0  0  0  0
   27.2869   41.6013  -11.0599 H   0  0  0  0  0  0  0  0  0  0  0  0
   25.7398   40.7848  -11.2403 H   0  0  0  0  0  0  0  0  0  0  0  0
   26.6081   40.6957   -9.7158 H   0  0  0  0  0  0  0  0  0  0  0  0
   24.6256   41.9870   -8.2638 H   0  0  0  0  0  0  0  0  0  0  0  0
   23.7987   43.2731   -9.0480 H   0  0  0  0  0  0  0  0  0  0  0  0
   20.9358   39.8255  -10.1265 H   0  0  0  0  0  0  0  0  0  0  0  0
   22.1197   38.8492   -9.3074 H   0  0  0  0  0  0  0  0  0  0  0  0
   18.9602   38.6646   -9.6438 H   0  0  0  0  0  0  0  0  0  0  0  0
   19.8467   37.3469   -8.9549 H   0  0  0  0  0  0  0  0  0  0  0  0
   17.4359   37.3100   -8.3380 H   0  0  0  0  0  0  0  0  0  0  0  0
   18.4575   37.3508   -6.9437 H   0  0  0  0  0  0  0  0  0  0  0  0
   16.5283   38.8016   -6.6135 H   0  0  0  0  0  0  0  0  0  0  0  0
   17.9939   39.7249   -6.5567 H   0  0  0  0  0  0  0  0  0  0  0  0
   17.5831   40.4077   -8.9832 H   0  0  0  0  0  0  0  0  0  0  0  0
   16.0770   39.5428   -8.9207 H   0  0  0  0  0  0  0  0  0  0  0  0
   15.2251   41.0398   -7.1323 H   0  0  0  0  0  0  0  0  0  0  0  0
   16.7413   41.8207   -6.9772 H   0  0  0  0  0  0  0  0  0  0  0  0
   18.6483   42.2728   -8.8308 H   0  0  0  0  0  0  0  0  0  0  0  0
   20.6280   45.1346   -6.3170 H   0  0  0  0  0  0  0  0  0  0  0  0
   16.5473   45.7972   -7.5548 H   0  0  0  0  0  0  0  0  0  0  0  0
   19.3780   48.3933   -5.2400 H   0  0  0  0  0  0  0  0  0  0  0  0
   20.4859   47.1149   -5.6389 H   0  0  0  0  0  0  0  0  0  0  0  0
   20.7915   49.0207   -7.2040 H   0  0  0  0  0  0  0  0  0  0  0  0
   19.0773   48.9953   -7.6347 H   0  0  0  0  0  0  0  0  0  0  0  0
   20.1391   47.6782   -8.1313 H   0  0  0  0  0  0  0  0  0  0  0  0
   20.6938   42.2657   -9.4828 H   0  0  0  0  0  0  0  0  0  0  0  0
   14.0610   40.9490   -9.0383 H   0  0  0  0  0  0  0  0  0  0  0  0
   13.6962   42.6045   -9.4141 H   0  0  0  0  0  0  0  0  0  0  0  0
   13.8549   41.1415  -11.4535 H   0  0  0  0  0  0  0  0  0  0  0  0
   15.5338   40.7743  -11.0746 H   0  0  0  0  0  0  0  0  0  0  0  0
   15.0691   42.4193  -11.5209 H   0  0  0  0  0  0  0  0  0  0  0  0
   21.5576   37.8169   -6.9968 H   0  0  0  0  0  0  0  0  0  0  0  0
   20.2512   38.5420   -6.0602 H   0  0  0  0  0  0  0  0  0  0  0  0
   21.6940   39.4587   -6.3796 H   0  0  0  0  0  0  0  0  0  0  0  0
   23.2196   41.3563  -11.7707 H   0  0  0  0  0  0  0  0  0  0  0  0
  1  2  1  0  0  0  0
  1 43  1  0  0  0  0
  1 44  1  0  0  0  0
  1 45  1  0  0  0  0
  2  3  1  0  0  0  0
  2 46  1  0  0  0  0
  2 47  1  0  0  0  0
  3  4  1  0  0  0  0
  3 48  1  0  0  0  0
  3 49  1  0  0  0  0
  4  5  1  0  0  0  0
  4 50  1  0  0  0  0
  4 51  1  0  0  0  0
  5  6  1  0  0  0  0
  5 52  1  0  0  0  0
  6  7  2  0  0  0  0
  6  8  1  0  0  0  0
  8 39  1  1  0  0  0
  8  9  1  0  0  0  0
  8 10  1  0  0  0  0
  9 53  1  0  0  0  0
  9 54  1  0  0  0  0
  9 55  1  0  0  0  0
 10 11  1  0  0  0  0
 10 56  1  0  0  0  0
 10 57  1  0  0  0  0
 11 40  1  6  0  0  0
 11 12  1  0  0  0  0
 11 38  1  0  0  0  0
 12 41  1  1  0  0  0
 12 34  1  0  0  0  0
 12 13  1  0  0  0  0
 13 14  1  0  0  0  0
 13 58  1  0  0  0  0
 13 59  1  0  0  0  0
 14 42  1  1  0  0  0
 14 15  1  0  0  0  0
 14 37  1  0  0  0  0
 15 16  1  0  0  0  0
 15 60  1  0  0  0  0
 15 61  1  0  0  0  0
 16 17  1  0  0  0  0
 16 62  1  0  0  0  0
 16 63  1  0  0  0  0
 17 18  1  0  0  0  0
 17 64  1  0  0  0  0
 17 65  1  0  0  0  0
 18 19  1  0  0  0  0
 18 66  1  0  0  0  0
 18 67  1  0  0  0  0
 19 20  1  0  0  0  0
 19 68  1  0  0  0  0
 19 69  1  0  0  0  0
 20 21  1  0  0  0  0
 20 35  1  0  0  0  0
 21 22  2  0  0  0  0
 21 23  1  0  0  0  0
 23 28  1  0  0  0  0
 23 24  2  0  0  0  0
 24 25  1  0  0  0  0
 24 70  1  0  0  0  0
 25 26  2  0  0  0  0
 25 32  1  0  0  0  0
 26 27  1  0  0  0  0
 26 71  1  0  0  0  0
 27 28  2  0  0  0  0
 27 29  1  0  0  0  0
 28 72  1  0  0  0  0
 29 30  1  0  0  0  0
 30 31  1  0  0  0  0
 30 73  1  0  0  0  0
 30 74  1  0  0  0  0
 31 75  1  0  0  0  0
 31 76  1  0  0  0  0
 31 77  1  0  0  0  0
 32 33  2  0  0  0  0
 32 34  1  0  0  0  0
 34 78  1  0  0  0  0
 35 36  1  0  0  0  0
 35 79  1  0  0  0  0
 35 80  1  0  0  0  0
 36 81  1  0  0  0  0
 36 82  1  0  0  0  0
 36 83  1  0  0  0  0
 37 84  1  0  0  0  0
 37 85  1  0  0  0  0
 37 86  1  0  0  0  0
 38 87  1  0  0  0  0
M  END
