BACE_17.smi:1
 OpenBabel10031817233D
Structure written by MMmdl.
 62 64  0  0  1  0  0  0  0  0999 V2000
   18.0070   46.1363   -7.3563 C   0  0  0  0  0  0  0  0  0  0  0  0
   18.8138   47.1612   -6.6833 N   0  0  0  0  0  0  0  0  0  0  0  0
   18.0609   48.3342   -6.2393 C   0  0  0  0  0  0  0  0  0  0  0  0
   20.1238   47.0219   -6.3599 C   0  0  0  0  0  0  0  0  0  0  0  0
   20.7248   47.8359   -5.6558 O   0  0  0  0  0  0  0  0  0  0  0  0
   20.8576   45.7970   -6.8284 C   0  0  0  0  0  0  0  0  0  0  0  0
   21.5482   45.0093   -5.8802 C   0  0  0  0  0  0  0  0  0  0  0  0
   20.9047   45.4409   -8.1966 C   0  0  0  0  0  0  0  0  0  0  0  0
   21.5846   44.2740   -8.6041 C   0  0  0  0  0  0  0  0  0  0  0  0
   22.2973   43.5198   -7.6479 C   0  0  0  0  0  0  0  0  0  0  0  0
   22.2613   43.8592   -6.2855 C   0  0  0  0  0  0  0  0  0  0  0  0
   21.5365   43.8182  -10.0306 C   0  0  0  0  0  0  0  0  0  0  0  0
   21.5475   44.6098  -10.9726 O   0  0  0  0  0  0  0  0  0  0  0  0
   21.4071   42.4918  -10.1580 N   0  0  0  0  0  0  0  0  0  0  0  0
   21.3962   41.7160  -11.3887 C   0  0  2  0  0  0  0  0  0  0  0  0
   20.0096   41.7939  -12.0967 C   0  0  1  0  0  0  0  0  0  0  0  0
   20.0598   40.9677  -13.2398 O   0  0  0  0  0  0  0  0  0  0  0  0
   18.7476   41.4458  -11.2670 C   0  0  0  0  0  0  0  0  0  0  0  0
   17.6408   42.2243  -11.6811 O   0  0  0  0  0  0  0  0  0  0  0  0
   21.9406   40.2935  -11.0898 C   0  0  0  0  0  0  0  0  0  0  0  0
   21.1479   39.5169  -10.0438 C   0  0  0  0  0  0  0  0  0  0  0  0
   21.4073   39.7123   -8.6694 C   0  0  0  0  0  0  0  0  0  0  0  0
   20.6069   39.0828   -7.6835 C   0  0  0  0  0  0  0  0  0  0  0  0
   19.5618   38.2333   -8.1007 C   0  0  0  0  0  0  0  0  0  0  0  0
   19.3315   37.9916   -9.4677 C   0  0  0  0  0  0  0  0  0  0  0  0
   20.1314   38.6213  -10.4377 C   0  0  0  0  0  0  0  0  0  0  0  0
   20.7752   39.2531   -6.3257 O   0  0  0  0  0  0  0  0  0  0  0  0
   21.6953   40.2375   -5.8761 C   0  0  0  0  0  0  0  0  0  0  0  0
   21.5834   40.3768   -4.3500 C   0  0  0  0  0  0  0  0  0  0  0  0
   22.5712   41.3744   -3.7126 C   0  0  0  0  0  0  0  0  0  0  0  0
   22.3572   42.8387   -4.1263 C   0  0  0  0  0  0  0  0  0  0  0  0
   22.9216   43.0227   -5.4182 O   0  0  0  0  0  0  0  0  0  0  0  0
   22.1190   42.1733  -12.0677 H   0  0  0  0  0  0  0  0  0  0  0  0
   19.8799   42.8196  -12.4381 H   0  0  0  0  0  0  0  0  0  0  0  0
   18.2063   46.1247   -8.4268 H   0  0  0  0  0  0  0  0  0  0  0  0
   16.9387   46.3140   -7.2413 H   0  0  0  0  0  0  0  0  0  0  0  0
   18.2073   45.1418   -6.9532 H   0  0  0  0  0  0  0  0  0  0  0  0
   17.6617   48.1500   -5.2431 H   0  0  0  0  0  0  0  0  0  0  0  0
   17.2317   48.5563   -6.9112 H   0  0  0  0  0  0  0  0  0  0  0  0
   18.6795   49.2333   -6.1985 H   0  0  0  0  0  0  0  0  0  0  0  0
   21.5244   45.2938   -4.8400 H   0  0  0  0  0  0  0  0  0  0  0  0
   20.3962   46.0440   -8.9365 H   0  0  0  0  0  0  0  0  0  0  0  0
   22.8502   42.6397   -7.9408 H   0  0  0  0  0  0  0  0  0  0  0  0
   21.3470   41.9575   -9.3038 H   0  0  0  0  0  0  0  0  0  0  0  0
   20.1376   40.0693  -12.9552 H   0  0  0  0  0  0  0  0  0  0  0  0
   18.4652   40.3983  -11.3634 H   0  0  0  0  0  0  0  0  0  0  0  0
   18.9033   41.6431  -10.2050 H   0  0  0  0  0  0  0  0  0  0  0  0
   16.9032   41.9843  -11.1387 H   0  0  0  0  0  0  0  0  0  0  0  0
   22.0312   39.7250  -12.0141 H   0  0  0  0  0  0  0  0  0  0  0  0
   22.9660   40.3777  -10.7275 H   0  0  0  0  0  0  0  0  0  0  0  0
   22.2173   40.3676   -8.3893 H   0  0  0  0  0  0  0  0  0  0  0  0
   18.9355   37.7514   -7.3632 H   0  0  0  0  0  0  0  0  0  0  0  0
   18.5347   37.3269   -9.7693 H   0  0  0  0  0  0  0  0  0  0  0  0
   19.9311   38.4411  -11.4827 H   0  0  0  0  0  0  0  0  0  0  0  0
   22.7144   39.9640   -6.1564 H   0  0  0  0  0  0  0  0  0  0  0  0
   21.4465   41.1866   -6.3485 H   0  0  0  0  0  0  0  0  0  0  0  0
   20.5609   40.6523   -4.0874 H   0  0  0  0  0  0  0  0  0  0  0  0
   21.7559   39.3991   -3.9034 H   0  0  0  0  0  0  0  0  0  0  0  0
   22.4555   41.3123   -2.6307 H   0  0  0  0  0  0  0  0  0  0  0  0
   23.6000   41.0759   -3.9176 H   0  0  0  0  0  0  0  0  0  0  0  0
   21.2914   43.0712   -4.0891 H   0  0  0  0  0  0  0  0  0  0  0  0
   22.8602   43.5083   -3.4292 H   0  0  0  0  0  0  0  0  0  0  0  0
  1  2  1  0  0  0  0
  1 35  1  0  0  0  0
  1 36  1  0  0  0  0
  1 37  1  0  0  0  0
  2  3  1  0  0  0  0
  2  4  1  0  0  0  0
  3 38  1  0  0  0  0
  3 39  1  0  0  0  0
  3 40  1  0  0  0  0
  4  5  2  0  0  0  0
  4  6  1  0  0  0  0
  6  7  1  0  0  0  0
  6  8  2  0  0  0  0
  7 11  2  0  0  0  0
  7 41  1  0  0  0  0
  8  9  1  0  0  0  0
  8 42  1  0  0  0  0
  9 10  2  0  0  0  0
  9 12  1  0  0  0  0
 10 11  1  0  0  0  0
 10 43  1  0  0  0  0
 11 32  1  0  0  0  0
 12 13  2  0  0  0  0
 12 14  1  0  0  0  0
 14 15  1  0  0  0  0
 14 44  1  0  0  0  0
 15 33  1  6  0  0  0
 15 16  1  0  0  0  0
 15 20  1  0  0  0  0
 16 34  1  6  0  0  0
 16 17  1  0  0  0  0
 16 18  1  0  0  0  0
 17 45  1  0  0  0  0
 18 19  1  0  0  0  0
 18 46  1  0  0  0  0
 18 47  1  0  0  0  0
 19 48  1  0  0  0  0
 20 21  1  0  0  0  0
 20 49  1  0  0  0  0
 20 50  1  0  0  0  0
 21 26  1  0  0  0  0
 21 22  2  0  0  0  0
 22 23  1  0  0  0  0
 22 51  1  0  0  0  0
 23 24  2  0  0  0  0
 23 27  1  0  0  0  0
 24 25  1  0  0  0  0
 24 52  1  0  0  0  0
 25 26  2  0  0  0  0
 25 53  1  0  0  0  0
 26 54  1  0  0  0  0
 27 28  1  0  0  0  0
 28 29  1  0  0  0  0
 28 55  1  0  0  0  0
 28 56  1  0  0  0  0
 29 30  1  0  0  0  0
 29 57  1  0  0  0  0
 29 58  1  0  0  0  0
 30 31  1  0  0  0  0
 30 59  1  0  0  0  0
 30 60  1  0  0  0  0
 31 32  1  0  0  0  0
 31 61  1  0  0  0  0
 31 62  1  0  0  0  0
M  END
