BACE_20.smi:1
 OpenBabel10031817233D
Structure written by MMmdl.
 78 79  0  0  1  0  0  0  0  0999 V2000
   22.8753   47.1374  -15.8373 C   0  0  0  0  0  0  0  0  0  0  0  0
   23.5879   47.1755  -14.4796 C   0  0  0  0  0  0  0  0  0  0  0  0
   24.6785   46.1029  -14.3612 C   0  0  0  0  0  0  0  0  0  0  0  0
   25.5463   46.2679  -13.1043 C   0  0  0  0  0  0  0  0  0  0  0  0
   26.5807   45.2462  -13.0341 N   0  0  0  0  0  0  0  0  0  0  0  0
   26.4425   44.0774  -12.2757 C   0  0  0  0  0  0  0  0  0  0  0  0
   25.2486   43.6992  -11.6273 C   0  0  0  0  0  0  0  0  0  0  0  0
   25.2309   42.5214  -10.8446 C   0  0  0  0  0  0  0  0  0  0  0  0
   26.4202   41.7584  -10.7673 C   0  0  0  0  0  0  0  0  0  0  0  0
   27.5658   42.2189  -11.4476 C   0  0  0  0  0  0  0  0  0  0  0  0
   27.5700   43.3500  -12.1901 N   0  0  0  0  0  0  0  0  0  0  0  0
   28.7420   41.5106  -11.3337 O   0  0  0  0  0  0  0  0  0  0  0  0
   29.8880   41.9814  -12.0379 C   0  0  0  0  0  0  0  0  0  0  0  0
   23.9712   42.1305  -10.1131 C   0  0  0  0  0  0  0  0  0  0  0  0
   22.8974   42.6693  -10.3829 O   0  0  0  0  0  0  0  0  0  0  0  0
   24.1199   41.2509   -9.1070 N   0  0  0  0  0  0  0  0  0  0  0  0
   23.1159   40.8630   -8.1017 C   0  0  1  0  0  0  0  0  0  0  0  0
   22.7670   42.1308   -7.2585 C   0  0  0  0  0  0  0  0  0  0  0  0
   22.1418   41.9829   -5.8732 C   0  0  0  0  0  0  0  0  0  0  0  0
   22.4620   40.9168   -5.0029 C   0  0  0  0  0  0  0  0  0  0  0  0
   21.8989   40.8504   -3.7153 C   0  0  0  0  0  0  0  0  0  0  0  0
   21.0185   41.8581   -3.2734 C   0  0  0  0  0  0  0  0  0  0  0  0
   20.7145   42.9381   -4.1219 C   0  0  0  0  0  0  0  0  0  0  0  0
   21.2717   42.9991   -5.4133 C   0  0  0  0  0  0  0  0  0  0  0  0
   21.8922   40.1280   -8.7471 C   0  0  2  0  0  0  0  0  0  0  0  0
   21.1284   39.1782   -7.7832 C   0  0  0  0  0  0  0  0  0  0  0  0
   19.5937   39.3458   -7.6916 C   0  0  1  0  0  0  0  0  0  0  0  0
   19.1585   40.7879   -7.3844 C   0  0  0  0  0  0  0  0  0  0  0  0
   18.8233   38.8158   -8.9109 C   0  0  0  0  0  0  0  0  0  0  0  0
   19.0404   39.2686  -10.0332 O   0  0  0  0  0  0  0  0  0  0  0  0
   17.8480   37.9329   -8.6454 N   0  0  0  0  0  0  0  0  0  0  0  0
   16.7137   37.6548   -9.5238 C   0  0  0  0  0  0  0  0  0  0  0  0
   15.3920   37.9935   -8.8114 C   0  0  0  0  0  0  0  0  0  0  0  0
   15.2656   39.4728   -8.4018 C   0  0  0  0  0  0  0  0  0  0  0  0
   14.4626   39.6794   -7.1134 C   0  0  0  0  0  0  0  0  0  0  0  0
   22.2960   39.3511   -9.8581 O   0  0  0  0  0  0  0  0  0  0  0  0
   23.6512   40.1475   -7.4801 H   0  0  0  0  0  0  0  0  0  0  0  0
   21.2205   40.8762   -9.1621 H   0  0  0  0  0  0  0  0  0  0  0  0
   19.2786   38.7451   -6.8364 H   0  0  0  0  0  0  0  0  0  0  0  0
   22.0622   47.8638  -15.8715 H   0  0  0  0  0  0  0  0  0  0  0  0
   22.4602   46.1496  -16.0360 H   0  0  0  0  0  0  0  0  0  0  0  0
   23.5639   47.3739  -16.6476 H   0  0  0  0  0  0  0  0  0  0  0  0
   22.8588   47.0461  -13.6784 H   0  0  0  0  0  0  0  0  0  0  0  0
   24.0249   48.1667  -14.3407 H   0  0  0  0  0  0  0  0  0  0  0  0
   25.3221   46.1512  -15.2403 H   0  0  0  0  0  0  0  0  0  0  0  0
   24.2195   45.1129  -14.3668 H   0  0  0  0  0  0  0  0  0  0  0  0
   24.9344   46.2793  -12.2047 H   0  0  0  0  0  0  0  0  0  0  0  0
   26.0375   47.2400  -13.1317 H   0  0  0  0  0  0  0  0  0  0  0  0
   27.5066   45.4758  -13.3629 H   0  0  0  0  0  0  0  0  0  0  0  0
   24.3510   44.2939  -11.7135 H   0  0  0  0  0  0  0  0  0  0  0  0
   26.4783   40.8382  -10.2031 H   0  0  0  0  0  0  0  0  0  0  0  0
   30.7426   41.3466  -11.8119 H   0  0  0  0  0  0  0  0  0  0  0  0
   30.1482   42.9963  -11.7389 H   0  0  0  0  0  0  0  0  0  0  0  0
   29.7316   41.9538  -13.1177 H   0  0  0  0  0  0  0  0  0  0  0  0
   25.0378   40.8513   -8.9959 H   0  0  0  0  0  0  0  0  0  0  0  0
   23.6812   42.7032   -7.0962 H   0  0  0  0  0  0  0  0  0  0  0  0
   22.1196   42.7820   -7.8495 H   0  0  0  0  0  0  0  0  0  0  0  0
   23.1555   40.1491   -5.3031 H   0  0  0  0  0  0  0  0  0  0  0  0
   22.1560   40.0320   -3.0609 H   0  0  0  0  0  0  0  0  0  0  0  0
   20.5911   41.8120   -2.2832 H   0  0  0  0  0  0  0  0  0  0  0  0
   20.0515   43.7209   -3.7815 H   0  0  0  0  0  0  0  0  0  0  0  0
   21.0301   43.8397   -6.0477 H   0  0  0  0  0  0  0  0  0  0  0  0
   21.5167   39.2885   -6.7779 H   0  0  0  0  0  0  0  0  0  0  0  0
   21.3573   38.1379   -8.0269 H   0  0  0  0  0  0  0  0  0  0  0  0
   19.6276   41.1368   -6.4676 H   0  0  0  0  0  0  0  0  0  0  0  0
   18.0838   40.8424   -7.2397 H   0  0  0  0  0  0  0  0  0  0  0  0
   19.3918   41.4886   -8.1823 H   0  0  0  0  0  0  0  0  0  0  0  0
   17.7441   37.6142   -7.6917 H   0  0  0  0  0  0  0  0  0  0  0  0
   16.7356   36.6011   -9.8068 H   0  0  0  0  0  0  0  0  0  0  0  0
   16.7765   38.2344  -10.4405 H   0  0  0  0  0  0  0  0  0  0  0  0
   15.2997   37.3533   -7.9372 H   0  0  0  0  0  0  0  0  0  0  0  0
   14.5453   37.7394   -9.4495 H   0  0  0  0  0  0  0  0  0  0  0  0
   14.7999   40.0302   -9.2136 H   0  0  0  0  0  0  0  0  0  0  0  0
   16.2390   39.9316   -8.2623 H   0  0  0  0  0  0  0  0  0  0  0  0
   14.4568   40.7344   -6.8419 H   0  0  0  0  0  0  0  0  0  0  0  0
   14.8944   39.1359   -6.2716 H   0  0  0  0  0  0  0  0  0  0  0  0
   13.4349   39.3498   -7.2300 H   0  0  0  0  0  0  0  0  0  0  0  0
   23.1052   38.8982   -9.6418 H   0  0  0  0  0  0  0  0  0  0  0  0
  1  2  1  0  0  0  0
  1 40  1  0  0  0  0
  1 41  1  0  0  0  0
  1 42  1  0  0  0  0
  2  3  1  0  0  0  0
  2 43  1  0  0  0  0
  2 44  1  0  0  0  0
  3  4  1  0  0  0  0
  3 45  1  0  0  0  0
  3 46  1  0  0  0  0
  4  5  1  0  0  0  0
  4 47  1  0  0  0  0
  4 48  1  0  0  0  0
  5  6  1  0  0  0  0
  5 49  1  0  0  0  0
  6 11  1  0  0  0  0
  6  7  2  0  0  0  0
  7  8  1  0  0  0  0
  7 50  1  0  0  0  0
  8  9  2  0  0  0  0
  8 14  1  0  0  0  0
  9 10  1  0  0  0  0
  9 51  1  0  0  0  0
 10 11  2  0  0  0  0
 10 12  1  0  0  0  0
 12 13  1  0  0  0  0
 13 52  1  0  0  0  0
 13 53  1  0  0  0  0
 13 54  1  0  0  0  0
 14 15  2  0  0  0  0
 14 16  1  0  0  0  0
 16 17  1  0  0  0  0
 16 55  1  0  0  0  0
 17 37  1  1  0  0  0
 17 18  1  0  0  0  0
 17 25  1  0  0  0  0
 18 19  1  0  0  0  0
 18 56  1  0  0  0  0
 18 57  1  0  0  0  0
 19 24  1  0  0  0  0
 19 20  2  0  0  0  0
 20 21  1  0  0  0  0
 20 58  1  0  0  0  0
 21 22  2  0  0  0  0
 21 59  1  0  0  0  0
 22 23  1  0  0  0  0
 22 60  1  0  0  0  0
 23 24  2  0  0  0  0
 23 61  1  0  0  0  0
 24 62  1  0  0  0  0
 25 38  1  6  0  0  0
 25 26  1  0  0  0  0
 25 36  1  0  0  0  0
 26 27  1  0  0  0  0
 26 63  1  0  0  0  0
 26 64  1  0  0  0  0
 27 39  1  1  0  0  0
 27 28  1  0  0  0  0
 27 29  1  0  0  0  0
 28 65  1  0  0  0  0
 28 66  1  0  0  0  0
 28 67  1  0  0  0  0
 29 30  2  0  0  0  0
 29 31  1  0  0  0  0
 31 32  1  0  0  0  0
 31 68  1  0  0  0  0
 32 33  1  0  0  0  0
 32 69  1  0  0  0  0
 32 70  1  0  0  0  0
 33 34  1  0  0  0  0
 33 71  1  0  0  0  0
 33 72  1  0  0  0  0
 34 35  1  0  0  0  0
 34 73  1  0  0  0  0
 34 74  1  0  0  0  0
 35 75  1  0  0  0  0
 35 76  1  0  0  0  0
 35 77  1  0  0  0  0
 36 78  1  0  0  0  0
M  END
