BACE_10.smi:1
 OpenBabel10031817233D
Structure written by MMmdl.
 85 87  0  0  1  0  0  0  0  0999 V2000
   21.3657   38.2947   -8.9974 C   0  0  0  0  0  0  0  0  0  0  0  0
   20.5206   39.3511   -9.7359 C   0  0  2  0  0  0  0  0  0  0  0  0
   19.4658   38.7115  -10.6557 C   0  0  0  0  0  0  0  0  0  0  0  0
   18.4492   37.7993   -9.9606 C   0  0  0  0  0  0  0  0  0  0  0  0
   17.6110   38.5487   -9.1003 O   0  0  0  0  0  0  0  0  0  0  0  0
   16.3458   37.9288   -8.9050 C   0  0  0  0  0  0  0  0  0  0  0  0
   15.4837   38.7209   -7.9161 C   0  0  0  0  0  0  0  0  0  0  0  0
   15.4156   40.2292   -8.2168 C   0  0  0  0  0  0  0  0  0  0  0  0
   16.5411   40.9923   -7.5051 C   0  0  0  0  0  0  0  0  0  0  0  0
   16.4388   42.4369   -7.6401 N   0  0  0  0  0  0  0  0  0  0  0  0
   17.0097   43.1528   -8.6982 C   0  0  0  0  0  0  0  0  0  0  0  0
   16.9655   44.5592   -8.6288 C   0  0  0  0  0  0  0  0  0  0  0  0
   17.5247   45.3509   -9.6521 C   0  0  0  0  0  0  0  0  0  0  0  0
   18.1210   44.7283  -10.7660 C   0  0  0  0  0  0  0  0  0  0  0  0
   18.1935   43.3213  -10.8432 C   0  0  0  0  0  0  0  0  0  0  0  0
   17.6221   42.5351   -9.8150 C   0  0  0  0  0  0  0  0  0  0  0  0
   18.8449   42.6810  -12.0369 C   0  0  0  0  0  0  0  0  0  0  0  0
   18.4474   42.9489  -13.1706 O   0  0  0  0  0  0  0  0  0  0  0  0
   19.8804   41.8438  -11.8314 N   0  0  0  0  0  0  0  0  0  0  0  0
   20.7486   41.7713  -10.6508 C   0  0  1  0  0  0  0  0  0  0  0  0
   21.4019   40.3668  -10.5122 C   0  0  0  0  0  0  0  0  0  0  0  0
   21.7388   42.9745  -10.6692 C   0  0  1  0  0  0  0  0  0  0  0  0
   22.5989   43.2011   -9.3970 C   0  0  0  0  0  0  0  0  0  0  0  0
   21.9526   44.0013   -8.3401 N   0  0  0  0  0  0  0  0  0  0  0  0
   20.8847   43.4053   -7.5225 C   0  0  0  0  0  0  0  0  0  0  0  0
   21.3530   42.4306   -6.4516 C   0  0  0  0  0  0  0  0  0  0  0  0
   21.9285   41.1910   -6.7938 C   0  0  0  0  0  0  0  0  0  0  0  0
   22.3521   40.2890   -5.7982 C   0  0  0  0  0  0  0  0  0  0  0  0
   22.1643   40.6095   -4.4435 C   0  0  0  0  0  0  0  0  0  0  0  0
   21.5726   41.8407   -4.0850 C   0  0  0  0  0  0  0  0  0  0  0  0
   21.1773   42.7487   -5.0913 C   0  0  0  0  0  0  0  0  0  0  0  0
   21.4253   42.2024   -2.6224 C   0  0  0  0  0  0  0  0  0  0  0  0
   19.9958   42.6173   -2.2373 C   0  0  0  0  0  0  0  0  0  0  0  0
   22.4890   43.2364   -2.2385 C   0  0  0  0  0  0  0  0  0  0  0  0
   22.6220   42.7943  -11.7625 O   0  0  0  0  0  0  0  0  0  0  0  0
   17.4741   46.8676   -9.5741 C   0  0  0  0  0  0  0  0  0  0  0  0
   17.2602   47.3448   -8.2532 O   0  0  0  0  0  0  0  0  0  0  0  0
   17.2601   48.7586   -8.1788 C   0  0  0  0  0  0  0  0  0  0  0  0
   19.9903   39.8902   -8.9496 H   0  0  0  0  0  0  0  0  0  0  0  0
   20.1187   41.8868   -9.7824 H   0  0  0  0  0  0  0  0  0  0  0  0
   21.1921   43.8983  -10.8643 H   0  0  0  0  0  0  0  0  0  0  0  0
   21.8237   37.5651   -9.6557 H   0  0  0  0  0  0  0  0  0  0  0  0
   20.7519   37.7506   -8.2833 H   0  0  0  0  0  0  0  0  0  0  0  0
   22.1756   38.7425   -8.4288 H   0  0  0  0  0  0  0  0  0  0  0  0
   18.8971   39.4871  -11.1708 H   0  0  0  0  0  0  0  0  0  0  0  0
   19.9699   38.1502  -11.4426 H   0  0  0  0  0  0  0  0  0  0  0  0
   17.8473   37.3502  -10.7416 H   0  0  0  0  0  0  0  0  0  0  0  0
   18.9148   36.9783   -9.4165 H   0  0  0  0  0  0  0  0  0  0  0  0
   15.8222   37.8606   -9.8612 H   0  0  0  0  0  0  0  0  0  0  0  0
   16.4795   36.9117   -8.5356 H   0  0  0  0  0  0  0  0  0  0  0  0
   14.4749   38.3081   -7.9370 H   0  0  0  0  0  0  0  0  0  0  0  0
   15.8420   38.5555   -6.8975 H   0  0  0  0  0  0  0  0  0  0  0  0
   15.4275   40.4125   -9.2912 H   0  0  0  0  0  0  0  0  0  0  0  0
   14.4617   40.6115   -7.8503 H   0  0  0  0  0  0  0  0  0  0  0  0
   16.4494   40.7681   -6.4407 H   0  0  0  0  0  0  0  0  0  0  0  0
   17.5297   40.6441   -7.8043 H   0  0  0  0  0  0  0  0  0  0  0  0
   15.9700   42.9262   -6.8790 H   0  0  0  0  0  0  0  0  0  0  0  0
   16.5019   45.0315   -7.7740 H   0  0  0  0  0  0  0  0  0  0  0  0
   18.5409   45.3315  -11.5580 H   0  0  0  0  0  0  0  0  0  0  0  0
   17.6589   41.4578   -9.8925 H   0  0  0  0  0  0  0  0  0  0  0  0
   20.2536   41.3913  -12.6517 H   0  0  0  0  0  0  0  0  0  0  0  0
   22.3536   40.4664   -9.9943 H   0  0  0  0  0  0  0  0  0  0  0  0
   21.6738   39.9673  -11.4901 H   0  0  0  0  0  0  0  0  0  0  0  0
   23.0155   42.2754   -9.0077 H   0  0  0  0  0  0  0  0  0  0  0  0
   23.4790   43.7678   -9.7108 H   0  0  0  0  0  0  0  0  0  0  0  0
   21.6321   44.8847   -8.7207 H   0  0  0  0  0  0  0  0  0  0  0  0
   20.3848   44.2209   -6.9969 H   0  0  0  0  0  0  0  0  0  0  0  0
   20.0936   42.9625   -8.1172 H   0  0  0  0  0  0  0  0  0  0  0  0
   22.0473   40.9156   -7.8235 H   0  0  0  0  0  0  0  0  0  0  0  0
   22.8113   39.3527   -6.0756 H   0  0  0  0  0  0  0  0  0  0  0  0
   22.4881   39.9113   -3.6830 H   0  0  0  0  0  0  0  0  0  0  0  0
   20.7405   43.6993   -4.8185 H   0  0  0  0  0  0  0  0  0  0  0  0
   21.6432   41.2967   -2.0665 H   0  0  0  0  0  0  0  0  0  0  0  0
   19.2884   41.8125   -2.4407 H   0  0  0  0  0  0  0  0  0  0  0  0
   19.6627   43.4980   -2.7858 H   0  0  0  0  0  0  0  0  0  0  0  0
   19.9285   42.8468   -1.1722 H   0  0  0  0  0  0  0  0  0  0  0  0
   23.4641   42.8051   -2.4405 H   0  0  0  0  0  0  0  0  0  0  0  0
   22.4354   43.5123   -1.1863 H   0  0  0  0  0  0  0  0  0  0  0  0
   22.4539   44.1433   -2.8406 H   0  0  0  0  0  0  0  0  0  0  0  0
   23.0589   41.9559  -11.6884 H   0  0  0  0  0  0  0  0  0  0  0  0
   18.4141   47.2683   -9.9591 H   0  0  0  0  0  0  0  0  0  0  0  0
   16.6773   47.2206  -10.2311 H   0  0  0  0  0  0  0  0  0  0  0  0
   17.0899   49.0725   -7.1483 H   0  0  0  0  0  0  0  0  0  0  0  0
   16.4686   49.1864   -8.7957 H   0  0  0  0  0  0  0  0  0  0  0  0
   18.2175   49.1701   -8.5019 H   0  0  0  0  0  0  0  0  0  0  0  0
  1  2  1  0  0  0  0
  1 42  1  0  0  0  0
  1 43  1  0  0  0  0
  1 44  1  0  0  0  0
  2 39  1  1  0  0  0
  2 21  1  0  0  0  0
  2  3  1  0  0  0  0
  3  4  1  0  0  0  0
  3 45  1  0  0  0  0
  3 46  1  0  0  0  0
  4  5  1  0  0  0  0
  4 47  1  0  0  0  0
  4 48  1  0  0  0  0
  5  6  1  0  0  0  0
  6  7  1  0  0  0  0
  6 49  1  0  0  0  0
  6 50  1  0  0  0  0
  7  8  1  0  0  0  0
  7 51  1  0  0  0  0
  7 52  1  0  0  0  0
  8  9  1  0  0  0  0
  8 53  1  0  0  0  0
  8 54  1  0  0  0  0
  9 10  1  0  0  0  0
  9 55  1  0  0  0  0
  9 56  1  0  0  0  0
 10 11  1  0  0  0  0
 10 57  1  0  0  0  0
 11 16  1  0  0  0  0
 11 12  2  0  0  0  0
 12 13  1  0  0  0  0
 12 58  1  0  0  0  0
 13 14  2  0  0  0  0
 13 36  1  0  0  0  0
 14 15  1  0  0  0  0
 14 59  1  0  0  0  0
 15 16  2  0  0  0  0
 15 17  1  0  0  0  0
 16 60  1  0  0  0  0
 17 18  2  0  0  0  0
 17 19  1  0  0  0  0
 19 20  1  0  0  0  0
 19 61  1  0  0  0  0
 20 40  1  1  0  0  0
 20 21  1  0  0  0  0
 20 22  1  0  0  0  0
 21 62  1  0  0  0  0
 21 63  1  0  0  0  0
 22 41  1  6  0  0  0
 22 23  1  0  0  0  0
 22 35  1  0  0  0  0
 23 24  1  0  0  0  0
 23 64  1  0  0  0  0
 23 65  1  0  0  0  0
 24 25  1  0  0  0  0
 24 66  1  0  0  0  0
 25 26  1  0  0  0  0
 25 67  1  0  0  0  0
 25 68  1  0  0  0  0
 26 31  1  0  0  0  0
 26 27  2  0  0  0  0
 27 28  1  0  0  0  0
 27 69  1  0  0  0  0
 28 29  2  0  0  0  0
 28 70  1  0  0  0  0
 29 30  1  0  0  0  0
 29 71  1  0  0  0  0
 30 31  2  0  0  0  0
 30 32  1  0  0  0  0
 31 72  1  0  0  0  0
 32 33  1  0  0  0  0
 32 34  1  0  0  0  0
 32 73  1  0  0  0  0
 33 74  1  0  0  0  0
 33 75  1  0  0  0  0
 33 76  1  0  0  0  0
 34 77  1  0  0  0  0
 34 78  1  0  0  0  0
 34 79  1  0  0  0  0
 35 80  1  0  0  0  0
 36 37  1  0  0  0  0
 36 81  1  0  0  0  0
 36 82  1  0  0  0  0
 37 38  1  0  0  0  0
 38 83  1  0  0  0  0
 38 84  1  0  0  0  0
 38 85  1  0  0  0  0
M  END
