BACE_11.smi:1
 OpenBabel10031817233D
Structure written by MMmdl.
 81 83  0  0  1  0  0  0  0  0999 V2000
   21.9043   41.7990   -4.3102 C   0  0  0  0  0  0  0  0  0  0  0  0
   21.5898   41.7259   -5.8187 C   0  0  1  0  0  0  0  0  0  0  0  0
   20.6908   40.5435   -6.2385 C   0  0  0  0  0  0  0  0  0  0  0  0
   20.8763   39.4580   -5.6985 O   0  0  0  0  0  0  0  0  0  0  0  0
   19.8052   40.7188   -7.2377 N   0  0  0  0  0  0  0  0  0  0  0  0
   19.0320   39.6809   -7.9434 C   0  0  1  0  0  0  0  0  0  0  0  0
   19.9174   38.7567   -8.8147 C   0  0  0  0  0  0  0  0  0  0  0  0
   20.5783   39.5490   -9.9321 C   0  0  0  0  0  0  0  0  0  0  0  0
   19.9752   39.6166  -11.2048 C   0  0  0  0  0  0  0  0  0  0  0  0
   20.5201   40.4528  -12.1959 C   0  0  0  0  0  0  0  0  0  0  0  0
   21.6518   41.2436  -11.9116 C   0  0  0  0  0  0  0  0  0  0  0  0
   22.2724   41.1770  -10.6395 C   0  0  0  0  0  0  0  0  0  0  0  0
   21.7443   40.3005   -9.6731 C   0  0  0  0  0  0  0  0  0  0  0  0
   23.3628   41.9302  -10.2630 O   0  0  0  0  0  0  0  0  0  0  0  0
   23.7883   42.9759  -11.1221 C   0  0  0  0  0  0  0  0  0  0  0  0
   24.8588   43.8199  -10.4137 C   0  0  0  0  0  0  0  0  0  0  0  0
   24.3131   44.7999   -9.3536 C   0  0  0  0  0  0  0  0  0  0  0  0
   24.5681   44.4030   -7.8816 C   0  0  0  0  0  0  0  0  0  0  0  0
   23.6023   43.3647   -7.2674 C   0  0  0  0  0  0  0  0  0  0  0  0
   22.1718   43.8750   -6.9883 C   0  0  0  0  0  0  0  0  0  0  0  0
   21.8776   45.0220   -7.3321 O   0  0  0  0  0  0  0  0  0  0  0  0
   21.2747   43.0729   -6.3544 N   0  0  0  0  0  0  0  0  0  0  0  0
   19.9988   43.6742   -5.9350 C   0  0  0  0  0  0  0  0  0  0  0  0
   17.9362   38.9841   -7.0856 C   0  0  1  0  0  0  0  0  0  0  0  0
   16.7540   38.4297   -7.9246 C   0  0  0  0  0  0  0  0  0  0  0  0
   15.4377   38.5502   -7.2405 N   0  3  0  0  0  0  0  0  0  0  0  0
   14.9510   39.9217   -6.9536 C   0  0  0  0  0  0  0  0  0  0  0  0
   15.2182   40.8739   -8.1136 C   0  0  0  0  0  0  0  0  0  0  0  0
   14.4609   40.7760   -9.3002 C   0  0  0  0  0  0  0  0  0  0  0  0
   14.7410   41.6189  -10.3904 C   0  0  0  0  0  0  0  0  0  0  0  0
   15.8032   42.5398  -10.3159 C   0  0  0  0  0  0  0  0  0  0  0  0
   16.5871   42.6255   -9.1437 C   0  0  0  0  0  0  0  0  0  0  0  0
   16.2628   41.8176   -8.0345 C   0  0  0  0  0  0  0  0  0  0  0  0
   17.7835   43.5621   -9.0501 C   0  0  0  0  0  0  0  0  0  0  0  0
   17.3443   44.9769   -8.6480 C   0  0  0  0  0  0  0  0  0  0  0  0
   18.6582   43.5667  -10.3172 C   0  0  0  0  0  0  0  0  0  0  0  0
   18.4598   37.8828   -6.3763 O   0  0  0  0  0  0  0  0  0  0  0  0
   22.5222   41.3823   -6.2587 H   0  0  0  0  0  0  0  0  0  0  0  0
   18.4702   40.2842   -8.6563 H   0  0  0  0  0  0  0  0  0  0  0  0
   17.5633   39.7207   -6.3829 H   0  0  0  0  0  0  0  0  0  0  0  0
   22.2434   40.8362   -3.9221 H   0  0  0  0  0  0  0  0  0  0  0  0
   21.0242   42.0930   -3.7362 H   0  0  0  0  0  0  0  0  0  0  0  0
   22.6933   42.5235   -4.1051 H   0  0  0  0  0  0  0  0  0  0  0  0
   19.7321   41.6524   -7.6106 H   0  0  0  0  0  0  0  0  0  0  0  0
   20.6773   38.2597   -8.2093 H   0  0  0  0  0  0  0  0  0  0  0  0
   19.3137   37.9619   -9.2565 H   0  0  0  0  0  0  0  0  0  0  0  0
   19.0838   39.0443  -11.4219 H   0  0  0  0  0  0  0  0  0  0  0  0
   20.0553   40.4984  -13.1698 H   0  0  0  0  0  0  0  0  0  0  0  0
   22.0418   41.8792  -12.6913 H   0  0  0  0  0  0  0  0  0  0  0  0
   22.2121   40.2491   -8.7005 H   0  0  0  0  0  0  0  0  0  0  0  0
   24.2099   42.5509  -12.0336 H   0  0  0  0  0  0  0  0  0  0  0  0
   22.9487   43.6088  -11.4135 H   0  0  0  0  0  0  0  0  0  0  0  0
   25.6359   43.1776  -10.0000 H   0  0  0  0  0  0  0  0  0  0  0  0
   25.3524   44.4120  -11.1840 H   0  0  0  0  0  0  0  0  0  0  0  0
   24.8221   45.7525   -9.5105 H   0  0  0  0  0  0  0  0  0  0  0  0
   23.2592   45.0214   -9.5307 H   0  0  0  0  0  0  0  0  0  0  0  0
   25.5918   44.0410   -7.7829 H   0  0  0  0  0  0  0  0  0  0  0  0
   24.5325   45.3082   -7.2720 H   0  0  0  0  0  0  0  0  0  0  0  0
   23.5654   42.4753   -7.8931 H   0  0  0  0  0  0  0  0  0  0  0  0
   24.0312   43.0555   -6.3141 H   0  0  0  0  0  0  0  0  0  0  0  0
   19.5420   44.2588   -6.7322 H   0  0  0  0  0  0  0  0  0  0  0  0
   20.1715   44.3496   -5.0929 H   0  0  0  0  0  0  0  0  0  0  0  0
   19.2604   42.9459   -5.6089 H   0  0  0  0  0  0  0  0  0  0  0  0
   16.7001   38.9206   -8.8960 H   0  0  0  0  0  0  0  0  0  0  0  0
   16.9155   37.3781   -8.1674 H   0  0  0  0  0  0  0  0  0  0  0  0
   14.7495   38.1141   -7.8337 H   0  0  0  0  0  0  0  0  0  0  0  0
   13.8838   39.8582   -6.7527 H   0  0  0  0  0  0  0  0  0  0  0  0
   15.4044   40.3057   -6.0389 H   0  0  0  0  0  0  0  0  0  0  0  0
   13.6547   40.0596   -9.3748 H   0  0  0  0  0  0  0  0  0  0  0  0
   14.1392   41.5488  -11.2828 H   0  0  0  0  0  0  0  0  0  0  0  0
   16.0138   43.1717  -11.1640 H   0  0  0  0  0  0  0  0  0  0  0  0
   16.8455   41.8954   -7.1267 H   0  0  0  0  0  0  0  0  0  0  0  0
   18.4144   43.1667   -8.2550 H   0  0  0  0  0  0  0  0  0  0  0  0
   16.8075   44.9608   -7.6970 H   0  0  0  0  0  0  0  0  0  0  0  0
   16.6853   45.4184   -9.3977 H   0  0  0  0  0  0  0  0  0  0  0  0
   18.2055   45.6349   -8.5315 H   0  0  0  0  0  0  0  0  0  0  0  0
   18.9634   42.5543  -10.5921 H   0  0  0  0  0  0  0  0  0  0  0  0
   19.5670   44.1480  -10.1548 H   0  0  0  0  0  0  0  0  0  0  0  0
   18.1402   44.0071  -11.1697 H   0  0  0  0  0  0  0  0  0  0  0  0
   17.7424   37.3593   -6.0398 H   0  0  0  0  0  0  0  0  0  0  0  0
   15.4633   37.9989   -6.3792 H   0  0  0  0  0  0  0  0  0  0  0  0
  1  2  1  0  0  0  0
  1 41  1  0  0  0  0
  1 42  1  0  0  0  0
  1 43  1  0  0  0  0
  2 38  1  6  0  0  0
  2 22  1  0  0  0  0
  2  3  1  0  0  0  0
  3  4  2  0  0  0  0
  3  5  1  0  0  0  0
  5  6  1  0  0  0  0
  5 44  1  0  0  0  0
  6 39  1  6  0  0  0
  6  7  1  0  0  0  0
  6 24  1  0  0  0  0
  7  8  1  0  0  0  0
  7 45  1  0  0  0  0
  7 46  1  0  0  0  0
  8 13  1  0  0  0  0
  8  9  2  0  0  0  0
  9 10  1  0  0  0  0
  9 47  1  0  0  0  0
 10 11  2  0  0  0  0
 10 48  1  0  0  0  0
 11 12  1  0  0  0  0
 11 49  1  0  0  0  0
 12 13  2  0  0  0  0
 12 14  1  0  0  0  0
 13 50  1  0  0  0  0
 14 15  1  0  0  0  0
 15 16  1  0  0  0  0
 15 51  1  0  0  0  0
 15 52  1  0  0  0  0
 16 17  1  0  0  0  0
 16 53  1  0  0  0  0
 16 54  1  0  0  0  0
 17 18  1  0  0  0  0
 17 55  1  0  0  0  0
 17 56  1  0  0  0  0
 18 19  1  0  0  0  0
 18 57  1  0  0  0  0
 18 58  1  0  0  0  0
 19 20  1  0  0  0  0
 19 59  1  0  0  0  0
 19 60  1  0  0  0  0
 20 21  2  0  0  0  0
 20 22  1  0  0  0  0
 22 23  1  0  0  0  0
 23 61  1  0  0  0  0
 23 62  1  0  0  0  0
 23 63  1  0  0  0  0
 24 40  1  1  0  0  0
 24 25  1  0  0  0  0
 24 37  1  0  0  0  0
 25 26  1  0  0  0  0
 25 64  1  0  0  0  0
 25 65  1  0  0  0  0
 26 27  1  0  0  0  0
 26 66  1  0  0  0  0
 26 81  1  0  0  0  0
 27 28  1  0  0  0  0
 27 67  1  0  0  0  0
 27 68  1  0  0  0  0
 28 33  1  0  0  0  0
 28 29  2  0  0  0  0
 29 30  1  0  0  0  0
 29 69  1  0  0  0  0
 30 31  2  0  0  0  0
 30 70  1  0  0  0  0
 31 32  1  0  0  0  0
 31 71  1  0  0  0  0
 32 33  2  0  0  0  0
 32 34  1  0  0  0  0
 33 72  1  0  0  0  0
 34 35  1  0  0  0  0
 34 36  1  0  0  0  0
 34 73  1  0  0  0  0
 35 74  1  0  0  0  0
 35 75  1  0  0  0  0
 35 76  1  0  0  0  0
 36 77  1  0  0  0  0
 36 78  1  0  0  0  0
 36 79  1  0  0  0  0
 37 80  1  0  0  0  0
M  CHG  1  26   1
M  END
