BACE_12.smi:1
 OpenBabel10031817233D
Structure written by MMmdl.
 79 82  0  0  1  0  0  0  0  0999 V2000
   29.4447   41.3499  -13.5974 C   0  0  0  0  0  0  0  0  0  0  0  0
   29.6935   42.3775  -12.4883 C   0  0  0  0  0  0  0  0  0  0  0  0
   30.4575   41.7593  -11.3071 C   0  0  0  0  0  0  0  0  0  0  0  0
   28.3986   43.0437  -12.0414 C   0  0  0  0  0  0  0  0  0  0  0  0
   28.1830   44.4096  -12.3230 C   0  0  0  0  0  0  0  0  0  0  0  0
   27.0121   45.0515  -11.8790 C   0  0  0  0  0  0  0  0  0  0  0  0
   26.0518   44.3322  -11.1438 C   0  0  0  0  0  0  0  0  0  0  0  0
   26.2461   42.9615  -10.8730 C   0  0  0  0  0  0  0  0  0  0  0  0
   27.4158   42.3179  -11.3315 C   0  0  0  0  0  0  0  0  0  0  0  0
   25.2296   42.1937  -10.0505 C   0  0  0  0  0  0  0  0  0  0  0  0
   24.0624   41.7497  -10.8400 N   0  3  0  0  0  0  0  0  0  0  0  0
   23.1089   42.8027  -11.2576 C   0  0  0  0  0  0  0  0  0  0  0  0
   21.6861   42.2689  -11.5601 C   0  0  2  0  0  0  0  0  0  0  0  0
   20.9434   41.6913  -10.3246 C   0  0  2  0  0  0  0  0  0  0  0  0
   21.3475   40.2421   -9.9491 C   0  0  0  0  0  0  0  0  0  0  0  0
   20.4422   39.6147   -8.9113 C   0  0  0  0  0  0  0  0  0  0  0  0
   20.5120   40.0332   -7.5664 C   0  0  0  0  0  0  0  0  0  0  0  0
   19.6599   39.4588   -6.6064 C   0  0  0  0  0  0  0  0  0  0  0  0
   18.7353   38.4712   -6.9884 C   0  0  0  0  0  0  0  0  0  0  0  0
   18.6707   38.0432   -8.3305 C   0  0  0  0  0  0  0  0  0  0  0  0
   19.5240   38.6162   -9.2918 C   0  0  0  0  0  0  0  0  0  0  0  0
   17.7118   36.9407   -8.7251 C   0  0  0  0  0  0  0  0  0  0  0  0
   16.2446   37.3615   -8.6346 C   0  0  0  0  0  0  0  0  0  0  0  0
   15.7869   38.3597   -9.7010 C   0  0  0  0  0  0  0  0  0  0  0  0
   14.9159   39.4831   -9.1161 C   0  0  0  0  0  0  0  0  0  0  0  0
   14.4598   40.4166  -10.1361 N   0  0  0  0  0  0  0  0  0  0  0  0
   15.2159   41.5599  -10.4222 C   0  0  0  0  0  0  0  0  0  0  0  0
   16.6084   41.6363  -10.1902 C   0  0  0  0  0  0  0  0  0  0  0  0
   17.2982   42.8183  -10.5363 C   0  0  0  0  0  0  0  0  0  0  0  0
   16.5506   43.8961  -11.0551 C   0  0  0  0  0  0  0  0  0  0  0  0
   15.1644   43.7377  -11.2399 C   0  0  0  0  0  0  0  0  0  0  0  0
   14.5157   42.5832  -10.9533 N   0  0  0  0  0  0  0  0  0  0  0  0
   14.4445   44.7860  -11.7755 O   0  0  0  0  0  0  0  0  0  0  0  0
   13.0748   44.5617  -12.0918 C   0  0  0  0  0  0  0  0  0  0  0  0
   18.7812   42.9453  -10.3311 C   0  0  0  0  0  0  0  0  0  0  0  0
   19.2986   44.0384  -10.0985 O   0  0  0  0  0  0  0  0  0  0  0  0
   19.4910   41.8143  -10.4885 N   0  0  0  0  0  0  0  0  0  0  0  0
   21.6600   41.3502  -12.6425 O   0  0  0  0  0  0  0  0  0  0  0  0
   21.1297   43.1391  -11.9078 H   0  0  0  0  0  0  0  0  0  0  0  0
   21.1918   42.3137   -9.4620 H   0  0  0  0  0  0  0  0  0  0  0  0
   28.9121   41.7911  -14.4391 H   0  0  0  0  0  0  0  0  0  0  0  0
   28.8602   40.5049  -13.2341 H   0  0  0  0  0  0  0  0  0  0  0  0
   30.3853   40.9502  -13.9782 H   0  0  0  0  0  0  0  0  0  0  0  0
   30.3345   43.1527  -12.9097 H   0  0  0  0  0  0  0  0  0  0  0  0
   30.6686   42.5058  -10.5407 H   0  0  0  0  0  0  0  0  0  0  0  0
   31.4095   41.3506  -11.6408 H   0  0  0  0  0  0  0  0  0  0  0  0
   29.8969   40.9501  -10.8397 H   0  0  0  0  0  0  0  0  0  0  0  0
   28.9218   44.9749  -12.8718 H   0  0  0  0  0  0  0  0  0  0  0  0
   26.8619   46.1008  -12.0881 H   0  0  0  0  0  0  0  0  0  0  0  0
   25.1709   44.8428  -10.7821 H   0  0  0  0  0  0  0  0  0  0  0  0
   27.5770   41.2707  -11.1148 H   0  0  0  0  0  0  0  0  0  0  0  0
   25.7089   41.3024   -9.6400 H   0  0  0  0  0  0  0  0  0  0  0  0
   24.9072   42.7915   -9.1966 H   0  0  0  0  0  0  0  0  0  0  0  0
   24.3808   41.2736  -11.6840 H   0  0  0  0  0  0  0  0  0  0  0  0
   23.0329   43.5554  -10.4712 H   0  0  0  0  0  0  0  0  0  0  0  0
   23.5113   43.3109  -12.1351 H   0  0  0  0  0  0  0  0  0  0  0  0
   21.3436   39.5987  -10.8298 H   0  0  0  0  0  0  0  0  0  0  0  0
   22.3619   40.2068   -9.5558 H   0  0  0  0  0  0  0  0  0  0  0  0
   21.2119   40.7994   -7.2656 H   0  0  0  0  0  0  0  0  0  0  0  0
   19.7028   39.7797   -5.5757 H   0  0  0  0  0  0  0  0  0  0  0  0
   18.0798   38.0305   -6.2480 H   0  0  0  0  0  0  0  0  0  0  0  0
   19.4713   38.2879  -10.3207 H   0  0  0  0  0  0  0  0  0  0  0  0
   17.9420   36.5720   -9.7252 H   0  0  0  0  0  0  0  0  0  0  0  0
   17.8717   36.1056   -8.0441 H   0  0  0  0  0  0  0  0  0  0  0  0
   15.6600   36.4553   -8.7446 H   0  0  0  0  0  0  0  0  0  0  0  0
   16.0283   37.7510   -7.6400 H   0  0  0  0  0  0  0  0  0  0  0  0
   16.6442   38.7672  -10.2343 H   0  0  0  0  0  0  0  0  0  0  0  0
   15.2111   37.8134  -10.4400 H   0  0  0  0  0  0  0  0  0  0  0  0
   14.0339   39.0547   -8.6384 H   0  0  0  0  0  0  0  0  0  0  0  0
   15.4513   40.0176   -8.3300 H   0  0  0  0  0  0  0  0  0  0  0  0
   13.4529   40.4957  -10.2277 H   0  0  0  0  0  0  0  0  0  0  0  0
   17.1461   40.8138   -9.7438 H   0  0  0  0  0  0  0  0  0  0  0  0
   17.0312   44.8292  -11.3133 H   0  0  0  0  0  0  0  0  0  0  0  0
   12.6539   45.4675  -12.5284 H   0  0  0  0  0  0  0  0  0  0  0  0
   12.4934   44.3200  -11.1998 H   0  0  0  0  0  0  0  0  0  0  0  0
   12.9622   43.7580  -12.8217 H   0  0  0  0  0  0  0  0  0  0  0  0
   18.9816   40.9680  -10.6968 H   0  0  0  0  0  0  0  0  0  0  0  0
   22.5433   41.0423  -12.8403 H   0  0  0  0  0  0  0  0  0  0  0  0
   23.5648   41.0796  -10.2739 H   0  0  0  0  0  0  0  0  0  0  0  0
  1  2  1  0  0  0  0
  1 41  1  0  0  0  0
  1 42  1  0  0  0  0
  1 43  1  0  0  0  0
  2  3  1  0  0  0  0
  2  4  1  0  0  0  0
  2 44  1  0  0  0  0
  3 45  1  0  0  0  0
  3 46  1  0  0  0  0
  3 47  1  0  0  0  0
  4  9  1  0  0  0  0
  4  5  2  0  0  0  0
  5  6  1  0  0  0  0
  5 48  1  0  0  0  0
  6  7  2  0  0  0  0
  6 49  1  0  0  0  0
  7  8  1  0  0  0  0
  7 50  1  0  0  0  0
  8  9  2  0  0  0  0
  8 10  1  0  0  0  0
  9 51  1  0  0  0  0
 10 11  1  0  0  0  0
 10 52  1  0  0  0  0
 10 53  1  0  0  0  0
 11 12  1  0  0  0  0
 11 54  1  0  0  0  0
 11 79  1  0  0  0  0
 12 13  1  0  0  0  0
 12 55  1  0  0  0  0
 12 56  1  0  0  0  0
 13 39  1  6  0  0  0
 13 14  1  0  0  0  0
 13 38  1  0  0  0  0
 14 40  1  1  0  0  0
 14 37  1  0  0  0  0
 14 15  1  0  0  0  0
 15 16  1  0  0  0  0
 15 57  1  0  0  0  0
 15 58  1  0  0  0  0
 16 21  1  0  0  0  0
 16 17  2  0  0  0  0
 17 18  1  0  0  0  0
 17 59  1  0  0  0  0
 18 19  2  0  0  0  0
 18 60  1  0  0  0  0
 19 20  1  0  0  0  0
 19 61  1  0  0  0  0
 20 21  2  0  0  0  0
 20 22  1  0  0  0  0
 21 62  1  0  0  0  0
 22 23  1  0  0  0  0
 22 63  1  0  0  0  0
 22 64  1  0  0  0  0
 23 24  1  0  0  0  0
 23 65  1  0  0  0  0
 23 66  1  0  0  0  0
 24 25  1  0  0  0  0
 24 67  1  0  0  0  0
 24 68  1  0  0  0  0
 25 26  1  0  0  0  0
 25 69  1  0  0  0  0
 25 70  1  0  0  0  0
 26 27  1  0  0  0  0
 26 71  1  0  0  0  0
 27 32  1  0  0  0  0
 27 28  2  0  0  0  0
 28 29  1  0  0  0  0
 28 72  1  0  0  0  0
 29 30  2  0  0  0  0
 29 35  1  0  0  0  0
 30 31  1  0  0  0  0
 30 73  1  0  0  0  0
 31 32  2  0  0  0  0
 31 33  1  0  0  0  0
 33 34  1  0  0  0  0
 34 74  1  0  0  0  0
 34 75  1  0  0  0  0
 34 76  1  0  0  0  0
 35 36  2  0  0  0  0
 35 37  1  0  0  0  0
 37 77  1  0  0  0  0
 38 78  1  0  0  0  0
M  CHG  1  11   1
M  END
