BACE_15.smi:1
 OpenBabel10031817233D
Structure written by MMmdl.
 83 86  0  0  1  0  0  0  0  0999 V2000
   17.0185   36.1404   -9.2573 C   0  0  0  0  0  0  0  0  0  0  0  0
   16.9276   37.6201   -8.8755 C   0  0  0  0  0  0  0  0  0  0  0  0
   16.4426   38.5099  -10.0283 C   0  0  0  0  0  0  0  0  0  0  0  0
   18.2475   38.1243   -8.3133 C   0  0  0  0  0  0  0  0  0  0  0  0
   18.2955   38.5527   -6.9757 C   0  0  0  0  0  0  0  0  0  0  0  0
   19.5030   39.0144   -6.4358 C   0  0  0  0  0  0  0  0  0  0  0  0
   20.6721   39.0552   -7.2123 C   0  0  0  0  0  0  0  0  0  0  0  0
   20.6348   38.6527   -8.5605 C   0  0  0  0  0  0  0  0  0  0  0  0
   19.4207   38.1698   -9.1038 C   0  0  0  0  0  0  0  0  0  0  0  0
   21.8951   38.7678   -9.4021 C   0  0  0  0  0  0  0  0  0  0  0  0
   21.8904   40.0234  -10.1836 N   0  3  0  0  0  0  0  0  0  0  0  0
   21.2064   39.9239  -11.4891 C   0  0  0  0  0  0  0  0  0  0  0  0
   20.4799   41.2140  -11.9183 C   0  0  2  0  0  0  0  0  0  0  0  0
   19.2239   41.6064  -11.0807 C   0  0  2  0  0  0  0  0  0  0  0  0
   18.3152   42.6411  -11.8178 C   0  0  0  0  0  0  0  0  0  0  0  0
   17.2033   43.2408  -10.9712 C   0  0  0  0  0  0  0  0  0  0  0  0
   16.1309   42.4320  -10.5444 C   0  0  0  0  0  0  0  0  0  0  0  0
   15.1330   42.9685   -9.7124 C   0  0  0  0  0  0  0  0  0  0  0  0
   15.2015   44.3159   -9.3158 C   0  0  0  0  0  0  0  0  0  0  0  0
   16.2527   45.1515   -9.7503 C   0  0  0  0  0  0  0  0  0  0  0  0
   17.2473   44.6025  -10.5972 C   0  0  0  0  0  0  0  0  0  0  0  0
   16.2286   46.4540   -9.2996 O   0  0  0  0  0  0  0  0  0  0  0  0
   17.3398   47.3141   -9.5383 C   0  0  0  0  0  0  0  0  0  0  0  0
   17.4115   48.3082   -8.3683 C   0  0  0  0  0  0  0  0  0  0  0  0
   17.7264   47.6210   -7.0266 C   0  0  0  0  0  0  0  0  0  0  0  0
   19.2229   47.5700   -6.6917 C   0  0  0  0  0  0  0  0  0  0  0  0
   19.4728   46.5274   -5.7545 O   0  0  0  0  0  0  0  0  0  0  0  0
   19.7869   45.2629   -6.2144 C   0  0  0  0  0  0  0  0  0  0  0  0
   20.1080   44.2973   -5.2411 C   0  0  0  0  0  0  0  0  0  0  0  0
   20.5033   42.9989   -5.6045 C   0  0  0  0  0  0  0  0  0  0  0  0
   20.5310   42.6324   -6.9621 C   0  0  0  0  0  0  0  0  0  0  0  0
   20.1749   43.5665   -7.9544 C   0  0  0  0  0  0  0  0  0  0  0  0
   19.8206   44.8798   -7.5781 C   0  0  0  0  0  0  0  0  0  0  0  0
   20.2046   43.1944   -9.4041 C   0  0  0  0  0  0  0  0  0  0  0  0
   20.7105   43.9489  -10.2349 O   0  0  0  0  0  0  0  0  0  0  0  0
   19.5698   42.0525   -9.7223 N   0  0  0  0  0  0  0  0  0  0  0  0
   20.8732   41.9935   -4.5336 C   0  0  0  0  0  0  0  0  0  0  0  0
   22.2281   41.5735   -4.6458 O   0  0  0  0  0  0  0  0  0  0  0  0
   22.5067   40.4789   -3.7890 C   0  0  0  0  0  0  0  0  0  0  0  0
   20.0603   40.9514  -13.2398 O   0  0  0  0  0  0  0  0  0  0  0  0
   21.1895   42.0407  -11.9679 H   0  0  0  0  0  0  0  0  0  0  0  0
   18.6206   40.7098  -10.9388 H   0  0  0  0  0  0  0  0  0  0  0  0
   17.2492   35.5283   -8.3863 H   0  0  0  0  0  0  0  0  0  0  0  0
   17.8027   35.9756   -9.9927 H   0  0  0  0  0  0  0  0  0  0  0  0
   16.0729   35.7927   -9.6735 H   0  0  0  0  0  0  0  0  0  0  0  0
   16.1757   37.6870   -8.0839 H   0  0  0  0  0  0  0  0  0  0  0  0
   16.2811   39.5240   -9.6669 H   0  0  0  0  0  0  0  0  0  0  0  0
   15.4972   38.1518  -10.4387 H   0  0  0  0  0  0  0  0  0  0  0  0
   17.1683   38.5553  -10.8390 H   0  0  0  0  0  0  0  0  0  0  0  0
   17.4066   38.5256   -6.3596 H   0  0  0  0  0  0  0  0  0  0  0  0
   19.5169   39.3375   -5.4069 H   0  0  0  0  0  0  0  0  0  0  0  0
   21.5908   39.4150   -6.7694 H   0  0  0  0  0  0  0  0  0  0  0  0
   19.3773   37.8286  -10.1259 H   0  0  0  0  0  0  0  0  0  0  0  0
   22.7585   38.7788   -8.7364 H   0  0  0  0  0  0  0  0  0  0  0  0
   22.0163   37.8958  -10.0395 H   0  0  0  0  0  0  0  0  0  0  0  0
   21.4364   40.7325   -9.6267 H   0  0  0  0  0  0  0  0  0  0  0  0
   21.9726   39.6982  -12.2314 H   0  0  0  0  0  0  0  0  0  0  0  0
   20.5072   39.0889  -11.5088 H   0  0  0  0  0  0  0  0  0  0  0  0
   18.9301   43.4495  -12.2136 H   0  0  0  0  0  0  0  0  0  0  0  0
   17.8472   42.1761  -12.6843 H   0  0  0  0  0  0  0  0  0  0  0  0
   16.0799   41.3970  -10.8445 H   0  0  0  0  0  0  0  0  0  0  0  0
   14.3204   42.3457   -9.3654 H   0  0  0  0  0  0  0  0  0  0  0  0
   14.4402   44.7088   -8.6599 H   0  0  0  0  0  0  0  0  0  0  0  0
   18.0692   45.2007  -10.9581 H   0  0  0  0  0  0  0  0  0  0  0  0
   18.2929   46.7958   -9.6062 H   0  0  0  0  0  0  0  0  0  0  0  0
   17.1842   47.8405  -10.4806 H   0  0  0  0  0  0  0  0  0  0  0  0
   18.1556   49.0767   -8.5782 H   0  0  0  0  0  0  0  0  0  0  0  0
   16.4596   48.8321   -8.2929 H   0  0  0  0  0  0  0  0  0  0  0  0
   17.2121   48.1378   -6.2166 H   0  0  0  0  0  0  0  0  0  0  0  0
   17.3177   46.6121   -7.0323 H   0  0  0  0  0  0  0  0  0  0  0  0
   19.8496   47.4993   -7.5794 H   0  0  0  0  0  0  0  0  0  0  0  0
   19.5099   48.5135   -6.2263 H   0  0  0  0  0  0  0  0  0  0  0  0
   20.0629   44.5484   -4.1949 H   0  0  0  0  0  0  0  0  0  0  0  0
   20.8348   41.6358   -7.2332 H   0  0  0  0  0  0  0  0  0  0  0  0
   19.5677   45.5716   -8.3620 H   0  0  0  0  0  0  0  0  0  0  0  0
   19.1357   41.5481   -8.9614 H   0  0  0  0  0  0  0  0  0  0  0  0
   20.6895   42.4202   -3.5411 H   0  0  0  0  0  0  0  0  0  0  0  0
   20.1995   41.1406   -4.6258 H   0  0  0  0  0  0  0  0  0  0  0  0
   23.5822   40.3632   -3.6458 H   0  0  0  0  0  0  0  0  0  0  0  0
   22.1065   39.5511   -4.1985 H   0  0  0  0  0  0  0  0  0  0  0  0
   22.0602   40.6320   -2.8131 H   0  0  0  0  0  0  0  0  0  0  0  0
   19.4684   40.2109  -13.2384 H   0  0  0  0  0  0  0  0  0  0  0  0
   22.8468   40.3067  -10.3517 H   0  0  0  0  0  0  0  0  0  0  0  0
  1  2  1  0  0  0  0
  1 43  1  0  0  0  0
  1 44  1  0  0  0  0
  1 45  1  0  0  0  0
  2  3  1  0  0  0  0
  2  4  1  0  0  0  0
  2 46  1  0  0  0  0
  3 47  1  0  0  0  0
  3 48  1  0  0  0  0
  3 49  1  0  0  0  0
  4  9  1  0  0  0  0
  4  5  2  0  0  0  0
  5  6  1  0  0  0  0
  5 50  1  0  0  0  0
  6  7  2  0  0  0  0
  6 51  1  0  0  0  0
  7  8  1  0  0  0  0
  7 52  1  0  0  0  0
  8  9  2  0  0  0  0
  8 10  1  0  0  0  0
  9 53  1  0  0  0  0
 10 11  1  0  0  0  0
 10 54  1  0  0  0  0
 10 55  1  0  0  0  0
 11 12  1  0  0  0  0
 11 56  1  0  0  0  0
 11 83  1  0  0  0  0
 12 13  1  0  0  0  0
 12 57  1  0  0  0  0
 12 58  1  0  0  0  0
 13 41  1  6  0  0  0
 13 14  1  0  0  0  0
 13 40  1  0  0  0  0
 14 42  1  1  0  0  0
 14 36  1  0  0  0  0
 14 15  1  0  0  0  0
 15 16  1  0  0  0  0
 15 59  1  0  0  0  0
 15 60  1  0  0  0  0
 16 21  1  0  0  0  0
 16 17  2  0  0  0  0
 17 18  1  0  0  0  0
 17 61  1  0  0  0  0
 18 19  2  0  0  0  0
 18 62  1  0  0  0  0
 19 20  1  0  0  0  0
 19 63  1  0  0  0  0
 20 21  2  0  0  0  0
 20 22  1  0  0  0  0
 21 64  1  0  0  0  0
 22 23  1  0  0  0  0
 23 24  1  0  0  0  0
 23 65  1  0  0  0  0
 23 66  1  0  0  0  0
 24 25  1  0  0  0  0
 24 67  1  0  0  0  0
 24 68  1  0  0  0  0
 25 26  1  0  0  0  0
 25 69  1  0  0  0  0
 25 70  1  0  0  0  0
 26 27  1  0  0  0  0
 26 71  1  0  0  0  0
 26 72  1  0  0  0  0
 27 28  1  0  0  0  0
 28 33  1  0  0  0  0
 28 29  2  0  0  0  0
 29 30  1  0  0  0  0
 29 73  1  0  0  0  0
 30 31  2  0  0  0  0
 30 37  1  0  0  0  0
 31 32  1  0  0  0  0
 31 74  1  0  0  0  0
 32 33  2  0  0  0  0
 32 34  1  0  0  0  0
 33 75  1  0  0  0  0
 34 35  2  0  0  0  0
 34 36  1  0  0  0  0
 36 76  1  0  0  0  0
 37 38  1  0  0  0  0
 37 77  1  0  0  0  0
 37 78  1  0  0  0  0
 38 39  1  0  0  0  0
 39 79  1  0  0  0  0
 39 80  1  0  0  0  0
 39 81  1  0  0  0  0
 40 82  1  0  0  0  0
M  CHG  1  11   1
M  END
