BACE_11.smi:1
 OpenBabel09281823033D
Structure written by MMmdl.
 81 83  0  0  1  0  0  0  0  0999 V2000
   14.8755   46.8884  -13.1096 C   0  0  0  0  0  0  0  0  0  0  0  0
   15.5820   46.2625  -11.8882 C   0  0  1  0  0  0  0  0  0  0  0  0
   14.9605   44.9528  -11.3421 C   0  0  0  0  0  0  0  0  0  0  0  0
   13.7351   44.8836  -11.2742 O   0  0  0  0  0  0  0  0  0  0  0  0
   15.7739   43.9931  -10.8604 N   0  0  0  0  0  0  0  0  0  0  0  0
   15.4423   42.9225   -9.9013 C   0  0  1  0  0  0  0  0  0  0  0  0
   15.3236   43.5053   -8.4735 C   0  0  0  0  0  0  0  0  0  0  0  0
   16.5472   44.3134   -8.0610 C   0  0  0  0  0  0  0  0  0  0  0  0
   17.6598   43.6671   -7.4796 C   0  0  0  0  0  0  0  0  0  0  0  0
   18.7775   44.4101   -7.0620 C   0  0  0  0  0  0  0  0  0  0  0  0
   18.7906   45.8076   -7.2186 C   0  0  0  0  0  0  0  0  0  0  0  0
   17.6887   46.4696   -7.8164 C   0  0  0  0  0  0  0  0  0  0  0  0
   16.5771   45.7115   -8.2319 C   0  0  0  0  0  0  0  0  0  0  0  0
   17.6205   47.8293   -8.0283 O   0  0  0  0  0  0  0  0  0  0  0  0
   18.7277   48.6402   -7.6672 C   0  0  0  0  0  0  0  0  0  0  0  0
   18.6041   49.9976   -8.3768 C   0  0  0  0  0  0  0  0  0  0  0  0
   19.0693   49.9771   -9.8491 C   0  0  0  0  0  0  0  0  0  0  0  0
   17.9531   49.9724  -10.9167 C   0  0  0  0  0  0  0  0  0  0  0  0
   17.0816   48.7020  -11.0427 C   0  0  0  0  0  0  0  0  0  0  0  0
   17.7873   47.4488  -11.6090 C   0  0  0  0  0  0  0  0  0  0  0  0
   19.0143   47.4663  -11.7218 O   0  0  0  0  0  0  0  0  0  0  0  0
   17.0594   46.3652  -11.9993 N   0  0  0  0  0  0  0  0  0  0  0  0
   17.7642   45.2796  -12.7014 C   0  0  0  0  0  0  0  0  0  0  0  0
   14.3094   41.9415  -10.3517 C   0  0  1  0  0  0  0  0  0  0  0  0
   14.4709   40.4709   -9.8600 C   0  0  0  0  0  0  0  0  0  0  0  0
   14.4609   40.3095   -8.3810 N   0  3  0  0  0  0  0  0  0  0  0  0
   14.8628   38.9818   -7.8598 C   0  0  0  0  0  0  0  0  0  0  0  0
   16.2836   38.6157   -8.2644 C   0  0  0  0  0  0  0  0  0  0  0  0
   16.5436   37.3657   -8.8654 C   0  0  0  0  0  0  0  0  0  0  0  0
   17.8540   37.0169   -9.2315 C   0  0  0  0  0  0  0  0  0  0  0  0
   18.9124   37.9270   -9.0227 C   0  0  0  0  0  0  0  0  0  0  0  0
   18.6656   39.1916   -8.4363 C   0  0  0  0  0  0  0  0  0  0  0  0
   17.3486   39.5186   -8.0438 C   0  0  0  0  0  0  0  0  0  0  0  0
   19.7881   40.2110   -8.2184 C   0  0  0  0  0  0  0  0  0  0  0  0
   20.8653   40.1772   -9.3159 C   0  0  0  0  0  0  0  0  0  0  0  0
   20.4172   40.0674   -6.8160 C   0  0  0  0  0  0  0  0  0  0  0  0
   13.0085   42.4128  -10.0402 O   0  0  0  0  0  0  0  0  0  0  0  0
   15.2850   46.9127  -11.0652 H   0  0  0  0  0  0  0  0  0  0  0  0
   16.3479   42.3181   -9.9055 H   0  0  0  0  0  0  0  0  0  0  0  0
   14.3447   41.8945  -11.4407 H   0  0  0  0  0  0  0  0  0  0  0  0
   13.8102   46.6690  -13.1336 H   0  0  0  0  0  0  0  0  0  0  0  0
   15.3196   46.5487  -14.0415 H   0  0  0  0  0  0  0  0  0  0  0  0
   14.9725   47.9716  -13.1213 H   0  0  0  0  0  0  0  0  0  0  0  0
   16.7603   44.1659  -10.9718 H   0  0  0  0  0  0  0  0  0  0  0  0
   14.4352   44.1354   -8.4030 H   0  0  0  0  0  0  0  0  0  0  0  0
   15.1846   42.7178   -7.7347 H   0  0  0  0  0  0  0  0  0  0  0  0
   17.6490   42.6005   -7.3222 H   0  0  0  0  0  0  0  0  0  0  0  0
   19.6266   43.9112   -6.6136 H   0  0  0  0  0  0  0  0  0  0  0  0
   19.6597   46.3410   -6.8678 H   0  0  0  0  0  0  0  0  0  0  0  0
   15.7351   46.2167   -8.6771 H   0  0  0  0  0  0  0  0  0  0  0  0
   18.7181   48.7808   -6.5848 H   0  0  0  0  0  0  0  0  0  0  0  0
   19.6824   48.1860   -7.9361 H   0  0  0  0  0  0  0  0  0  0  0  0
   17.5901   50.3916   -8.2776 H   0  0  0  0  0  0  0  0  0  0  0  0
   19.2462   50.7029   -7.8471 H   0  0  0  0  0  0  0  0  0  0  0  0
   19.6553   50.8814  -10.0137 H   0  0  0  0  0  0  0  0  0  0  0  0
   19.7790   49.1655  -10.0185 H   0  0  0  0  0  0  0  0  0  0  0  0
   17.2917   50.8204  -10.7327 H   0  0  0  0  0  0  0  0  0  0  0  0
   18.4107   50.1689  -11.8845 H   0  0  0  0  0  0  0  0  0  0  0  0
   16.6078   48.4733  -10.0927 H   0  0  0  0  0  0  0  0  0  0  0  0
   16.2672   48.9607  -11.7156 H   0  0  0  0  0  0  0  0  0  0  0  0
   18.3440   44.6820  -11.9995 H   0  0  0  0  0  0  0  0  0  0  0  0
   18.4630   45.6734  -13.4393 H   0  0  0  0  0  0  0  0  0  0  0  0
   17.0813   44.6216  -13.2403 H   0  0  0  0  0  0  0  0  0  0  0  0
   13.6676   39.8543  -10.2723 H   0  0  0  0  0  0  0  0  0  0  0  0
   15.4068   40.0762  -10.2608 H   0  0  0  0  0  0  0  0  0  0  0  0
   15.0849   40.9816   -7.9617 H   0  0  0  0  0  0  0  0  0  0  0  0
   14.8022   38.9850   -6.7695 H   0  0  0  0  0  0  0  0  0  0  0  0
   14.1567   38.2262   -8.2101 H   0  0  0  0  0  0  0  0  0  0  0  0
   15.7394   36.6657   -9.0464 H   0  0  0  0  0  0  0  0  0  0  0  0
   18.0538   36.0599   -9.6873 H   0  0  0  0  0  0  0  0  0  0  0  0
   19.9082   37.6402   -9.3169 H   0  0  0  0  0  0  0  0  0  0  0  0
   17.1539   40.4731   -7.5735 H   0  0  0  0  0  0  0  0  0  0  0  0
   19.3313   41.2026   -8.2789 H   0  0  0  0  0  0  0  0  0  0  0  0
   20.4140   40.2479  -10.3111 H   0  0  0  0  0  0  0  0  0  0  0  0
   21.4645   39.2611   -9.2721 H   0  0  0  0  0  0  0  0  0  0  0  0
   21.5591   41.0154   -9.2044 H   0  0  0  0  0  0  0  0  0  0  0  0
   19.6738   40.1866   -6.0274 H   0  0  0  0  0  0  0  0  0  0  0  0
   21.1916   40.8210   -6.6540 H   0  0  0  0  0  0  0  0  0  0  0  0
   20.8703   39.0779   -6.6869 H   0  0  0  0  0  0  0  0  0  0  0  0
   12.5803   41.8358   -9.4138 H   0  0  0  0  0  0  0  0  0  0  0  0
   13.5128   40.5108   -8.0539 H   0  0  0  0  0  0  0  0  0  0  0  0
  1  2  1  0  0  0  0
  1 41  1  0  0  0  0
  1 42  1  0  0  0  0
  1 43  1  0  0  0  0
  2 38  1  1  0  0  0
  2 22  1  0  0  0  0
  2  3  1  0  0  0  0
  3  4  2  0  0  0  0
  3  5  1  0  0  0  0
  5  6  1  0  0  0  0
  5 44  1  0  0  0  0
  6 39  1  1  0  0  0
  6  7  1  0  0  0  0
  6 24  1  0  0  0  0
  7  8  1  0  0  0  0
  7 45  1  0  0  0  0
  7 46  1  0  0  0  0
  8 13  1  0  0  0  0
  8  9  2  0  0  0  0
  9 10  1  0  0  0  0
  9 47  1  0  0  0  0
 10 11  2  0  0  0  0
 10 48  1  0  0  0  0
 11 12  1  0  0  0  0
 11 49  1  0  0  0  0
 12 13  2  0  0  0  0
 12 14  1  0  0  0  0
 13 50  1  0  0  0  0
 14 15  1  0  0  0  0
 15 16  1  0  0  0  0
 15 51  1  0  0  0  0
 15 52  1  0  0  0  0
 16 17  1  0  0  0  0
 16 53  1  0  0  0  0
 16 54  1  0  0  0  0
 17 18  1  0  0  0  0
 17 55  1  0  0  0  0
 17 56  1  0  0  0  0
 18 19  1  0  0  0  0
 18 57  1  0  0  0  0
 18 58  1  0  0  0  0
 19 20  1  0  0  0  0
 19 59  1  0  0  0  0
 19 60  1  0  0  0  0
 20 21  2  0  0  0  0
 20 22  1  0  0  0  0
 22 23  1  0  0  0  0
 23 61  1  0  0  0  0
 23 62  1  0  0  0  0
 23 63  1  0  0  0  0
 24 40  1  6  0  0  0
 24 25  1  0  0  0  0
 24 37  1  0  0  0  0
 25 26  1  0  0  0  0
 25 64  1  0  0  0  0
 25 65  1  0  0  0  0
 26 27  1  0  0  0  0
 26 66  1  0  0  0  0
 26 81  1  0  0  0  0
 27 28  1  0  0  0  0
 27 67  1  0  0  0  0
 27 68  1  0  0  0  0
 28 33  1  0  0  0  0
 28 29  2  0  0  0  0
 29 30  1  0  0  0  0
 29 69  1  0  0  0  0
 30 31  2  0  0  0  0
 30 70  1  0  0  0  0
 31 32  1  0  0  0  0
 31 71  1  0  0  0  0
 32 33  2  0  0  0  0
 32 34  1  0  0  0  0
 33 72  1  0  0  0  0
 34 35  1  0  0  0  0
 34 36  1  0  0  0  0
 34 73  1  0  0  0  0
 35 74  1  0  0  0  0
 35 75  1  0  0  0  0
 35 76  1  0  0  0  0
 36 77  1  0  0  0  0
 36 78  1  0  0  0  0
 36 79  1  0  0  0  0
 37 80  1  0  0  0  0
M  CHG  1  26   1
M  END
