BACE_11.smi:1
 OpenBabel09281823033D
Structure written by MMmdl.
 80 82  0  0  1  0  0  0  0  0999 V2000
   28.5864   44.2349  -13.3159 C   0  0  0  0  0  0  0  0  0  0  0  0
   27.9566   44.1204  -11.9158 C   0  0  1  0  0  0  0  0  0  0  0  0
   26.4095   44.0569  -11.8846 C   0  0  0  0  0  0  0  0  0  0  0  0
   25.7634   44.7267  -12.6840 O   0  0  0  0  0  0  0  0  0  0  0  0
   25.8359   43.3104  -10.9238 N   0  0  0  0  0  0  0  0  0  0  0  0
   24.4375   43.3219  -10.4823 C   0  0  1  0  0  0  0  0  0  0  0  0
   24.1236   44.5774   -9.6365 C   0  0  0  0  0  0  0  0  0  0  0  0
   24.9864   44.6500   -8.3911 C   0  0  0  0  0  0  0  0  0  0  0  0
   24.4956   44.1444   -7.1738 C   0  0  0  0  0  0  0  0  0  0  0  0
   25.3180   44.1469   -6.0369 C   0  0  0  0  0  0  0  0  0  0  0  0
   26.6370   44.6357   -6.1036 C   0  0  0  0  0  0  0  0  0  0  0  0
   27.1429   45.1457   -7.3247 C   0  0  0  0  0  0  0  0  0  0  0  0
   26.2976   45.1716   -8.4511 C   0  0  0  0  0  0  0  0  0  0  0  0
   28.4275   45.6102   -7.5031 O   0  0  0  0  0  0  0  0  0  0  0  0
   29.3460   45.4853   -6.4315 C   0  0  0  0  0  0  0  0  0  0  0  0
   30.7533   45.8660   -6.9161 C   0  0  0  0  0  0  0  0  0  0  0  0
   31.4517   44.7875   -7.7708 C   0  0  0  0  0  0  0  0  0  0  0  0
   31.5160   45.0687   -9.2897 C   0  0  0  0  0  0  0  0  0  0  0  0
   30.2147   44.8819  -10.1057 C   0  0  0  0  0  0  0  0  0  0  0  0
   29.7346   43.4225  -10.2649 C   0  0  0  0  0  0  0  0  0  0  0  0
   30.3257   42.5387   -9.6406 O   0  0  0  0  0  0  0  0  0  0  0  0
   28.6972   43.1290  -11.0936 N   0  0  0  0  0  0  0  0  0  0  0  0
   28.3488   41.7167  -11.3004 C   0  0  0  0  0  0  0  0  0  0  0  0
   23.4063   42.9860  -11.5989 C   0  0  1  0  0  0  0  0  0  0  0  0
   22.3082   42.0067  -11.1134 C   0  0  0  0  0  0  0  0  0  0  0  0
   21.6600   41.3307  -12.2404 N   0  0  0  0  0  0  0  0  0  0  0  0
   20.9472   40.1103  -11.8649 C   0  0  0  0  0  0  0  0  0  0  0  0
   19.7185   40.3490  -11.0131 C   0  0  0  0  0  0  0  0  0  0  0  0
   18.6430   41.1200  -11.5033 C   0  0  0  0  0  0  0  0  0  0  0  0
   17.5012   41.3231  -10.7077 C   0  0  0  0  0  0  0  0  0  0  0  0
   17.4347   40.7727   -9.4117 C   0  0  0  0  0  0  0  0  0  0  0  0
   18.5062   40.0030   -8.9064 C   0  0  0  0  0  0  0  0  0  0  0  0
   19.6403   39.7852   -9.7210 C   0  0  0  0  0  0  0  0  0  0  0  0
   18.4292   39.4241   -7.4951 C   0  0  0  0  0  0  0  0  0  0  0  0
   19.6997   39.6998   -6.6699 C   0  0  0  0  0  0  0  0  0  0  0  0
   18.1011   37.9230   -7.5183 C   0  0  0  0  0  0  0  0  0  0  0  0
   22.7595   44.1633  -12.0393 O   0  0  0  0  0  0  0  0  0  0  0  0
   28.0988   45.1035  -11.4708 H   0  0  0  0  0  0  0  0  0  0  0  0
   24.4190   42.4792   -9.7916 H   0  0  0  0  0  0  0  0  0  0  0  0
   23.9343   42.5514  -12.4437 H   0  0  0  0  0  0  0  0  0  0  0  0
   28.0455   44.9369  -13.9515 H   0  0  0  0  0  0  0  0  0  0  0  0
   28.5949   43.2700  -13.8185 H   0  0  0  0  0  0  0  0  0  0  0  0
   29.6196   44.5790  -13.2624 H   0  0  0  0  0  0  0  0  0  0  0  0
   26.4671   42.7836  -10.3374 H   0  0  0  0  0  0  0  0  0  0  0  0
   24.2702   45.4859  -10.2215 H   0  0  0  0  0  0  0  0  0  0  0  0
   23.0775   44.5721   -9.3308 H   0  0  0  0  0  0  0  0  0  0  0  0
   23.4970   43.7373   -7.1090 H   0  0  0  0  0  0  0  0  0  0  0  0
   24.9425   43.7502   -5.1075 H   0  0  0  0  0  0  0  0  0  0  0  0
   27.2353   44.6057   -5.2073 H   0  0  0  0  0  0  0  0  0  0  0  0
   26.6786   45.5638   -9.3813 H   0  0  0  0  0  0  0  0  0  0  0  0
   29.0420   46.1547   -5.6255 H   0  0  0  0  0  0  0  0  0  0  0  0
   29.3586   44.4691   -6.0345 H   0  0  0  0  0  0  0  0  0  0  0  0
   30.7334   46.8282   -7.4310 H   0  0  0  0  0  0  0  0  0  0  0  0
   31.3630   46.0292   -6.0260 H   0  0  0  0  0  0  0  0  0  0  0  0
   32.4840   44.7270   -7.4255 H   0  0  0  0  0  0  0  0  0  0  0  0
   31.0383   43.8018   -7.5611 H   0  0  0  0  0  0  0  0  0  0  0  0
   31.8848   46.0828   -9.4422 H   0  0  0  0  0  0  0  0  0  0  0  0
   32.2825   44.4238   -9.7226 H   0  0  0  0  0  0  0  0  0  0  0  0
   29.4186   45.4902   -9.6858 H   0  0  0  0  0  0  0  0  0  0  0  0
   30.4000   45.2797  -11.1026 H   0  0  0  0  0  0  0  0  0  0  0  0
   27.8003   41.3364  -10.4395 H   0  0  0  0  0  0  0  0  0  0  0  0
   29.2360   41.0946  -11.4437 H   0  0  0  0  0  0  0  0  0  0  0  0
   27.7271   41.5672  -12.1826 H   0  0  0  0  0  0  0  0  0  0  0  0
   22.7784   41.2490  -10.4859 H   0  0  0  0  0  0  0  0  0  0  0  0
   21.5751   42.5133  -10.4826 H   0  0  0  0  0  0  0  0  0  0  0  0
   22.3997   41.0712  -12.8960 H   0  0  0  0  0  0  0  0  0  0  0  0
   20.6225   39.5900  -12.7668 H   0  0  0  0  0  0  0  0  0  0  0  0
   21.6183   39.4206  -11.3497 H   0  0  0  0  0  0  0  0  0  0  0  0
   18.6959   41.5475  -12.4935 H   0  0  0  0  0  0  0  0  0  0  0  0
   16.6726   41.9046  -11.0873 H   0  0  0  0  0  0  0  0  0  0  0  0
   16.5533   40.9375   -8.8068 H   0  0  0  0  0  0  0  0  0  0  0  0
   20.4577   39.1839   -9.3551 H   0  0  0  0  0  0  0  0  0  0  0  0
   17.6058   39.9285   -6.9826 H   0  0  0  0  0  0  0  0  0  0  0  0
   19.9161   40.7697   -6.6294 H   0  0  0  0  0  0  0  0  0  0  0  0
   20.5736   39.1916   -7.0833 H   0  0  0  0  0  0  0  0  0  0  0  0
   19.5718   39.3498   -5.6447 H   0  0  0  0  0  0  0  0  0  0  0  0
   17.1294   37.7393   -7.9817 H   0  0  0  0  0  0  0  0  0  0  0  0
   18.0603   37.5234   -6.5037 H   0  0  0  0  0  0  0  0  0  0  0  0
   18.8512   37.3520   -8.0670 H   0  0  0  0  0  0  0  0  0  0  0  0
   22.2581   44.5152  -11.3195 H   0  0  0  0  0  0  0  0  0  0  0  0
  1  2  1  0  0  0  0
  1 41  1  0  0  0  0
  1 42  1  0  0  0  0
  1 43  1  0  0  0  0
  2 38  1  1  0  0  0
  2 22  1  0  0  0  0
  2  3  1  0  0  0  0
  3  4  2  0  0  0  0
  3  5  1  0  0  0  0
  5  6  1  0  0  0  0
  5 44  1  0  0  0  0
  6 39  1  1  0  0  0
  6  7  1  0  0  0  0
  6 24  1  0  0  0  0
  7  8  1  0  0  0  0
  7 45  1  0  0  0  0
  7 46  1  0  0  0  0
  8 13  1  0  0  0  0
  8  9  2  0  0  0  0
  9 10  1  0  0  0  0
  9 47  1  0  0  0  0
 10 11  2  0  0  0  0
 10 48  1  0  0  0  0
 11 12  1  0  0  0  0
 11 49  1  0  0  0  0
 12 13  2  0  0  0  0
 12 14  1  0  0  0  0
 13 50  1  0  0  0  0
 14 15  1  0  0  0  0
 15 16  1  0  0  0  0
 15 51  1  0  0  0  0
 15 52  1  0  0  0  0
 16 17  1  0  0  0  0
 16 53  1  0  0  0  0
 16 54  1  0  0  0  0
 17 18  1  0  0  0  0
 17 55  1  0  0  0  0
 17 56  1  0  0  0  0
 18 19  1  0  0  0  0
 18 57  1  0  0  0  0
 18 58  1  0  0  0  0
 19 20  1  0  0  0  0
 19 59  1  0  0  0  0
 19 60  1  0  0  0  0
 20 21  2  0  0  0  0
 20 22  1  0  0  0  0
 22 23  1  0  0  0  0
 23 61  1  0  0  0  0
 23 62  1  0  0  0  0
 23 63  1  0  0  0  0
 24 40  1  6  0  0  0
 24 25  1  0  0  0  0
 24 37  1  0  0  0  0
 25 26  1  0  0  0  0
 25 64  1  0  0  0  0
 25 65  1  0  0  0  0
 26 27  1  0  0  0  0
 26 66  1  0  0  0  0
 27 28  1  0  0  0  0
 27 67  1  0  0  0  0
 27 68  1  0  0  0  0
 28 33  1  0  0  0  0
 28 29  2  0  0  0  0
 29 30  1  0  0  0  0
 29 69  1  0  0  0  0
 30 31  2  0  0  0  0
 30 70  1  0  0  0  0
 31 32  1  0  0  0  0
 31 71  1  0  0  0  0
 32 33  2  0  0  0  0
 32 34  1  0  0  0  0
 33 72  1  0  0  0  0
 34 35  1  0  0  0  0
 34 36  1  0  0  0  0
 34 73  1  0  0  0  0
 35 74  1  0  0  0  0
 35 75  1  0  0  0  0
 35 76  1  0  0  0  0
 36 77  1  0  0  0  0
 36 78  1  0  0  0  0
 36 79  1  0  0  0  0
 37 80  1  0  0  0  0
M  END
