BACE_14.smi:1
 OpenBabel09281823033D
Structure written by MMmdl.
 85 89  0  0  1  0  0  0  0  0999 V2000
   19.1314   41.7492  -11.7461 C   0  0  0  0  0  0  0  0  0  0  0  0
   19.5115   40.2581  -11.7180 C   0  0  0  0  0  0  0  0  0  0  0  0
   20.9177   40.0142  -12.2940 C   0  0  0  0  0  0  0  0  0  0  0  0
   19.3486   39.6507  -10.3257 C   0  0  0  0  0  0  0  0  0  0  0  0
   18.3674   38.6661  -10.0724 C   0  0  0  0  0  0  0  0  0  0  0  0
   18.2315   38.1149   -8.7847 C   0  0  0  0  0  0  0  0  0  0  0  0
   19.0725   38.5433   -7.7404 C   0  0  0  0  0  0  0  0  0  0  0  0
   20.0574   39.5293   -7.9703 C   0  0  0  0  0  0  0  0  0  0  0  0
   20.1873   40.0727   -9.2688 C   0  0  0  0  0  0  0  0  0  0  0  0
   20.9744   39.9954   -6.8486 C   0  0  0  0  0  0  0  0  0  0  0  0
   21.8132   38.9511   -6.1514 C   0  0  0  0  0  0  0  0  0  0  0  0
   22.4634   39.9367   -7.0926 C   0  0  0  0  0  0  0  0  0  0  0  0
   20.4605   41.1094   -6.0370 N   0  0  0  0  0  0  0  0  0  0  0  0
   21.3838   41.6360   -5.0290 C   0  0  0  0  0  0  0  0  0  0  0  0
   21.0725   43.1143   -4.6993 C   0  0  2  0  0  0  0  0  0  0  0  0
   20.9877   44.0738   -5.9212 C   0  0  2  0  0  0  0  0  0  0  0  0
   20.5639   45.5062   -5.4934 C   0  0  0  0  0  0  0  0  0  0  0  0
   20.3211   46.4506   -6.6643 C   0  0  0  0  0  0  0  0  0  0  0  0
   21.4125   47.0200   -7.3498 C   0  0  0  0  0  0  0  0  0  0  0  0
   21.1861   47.8503   -8.4625 C   0  0  0  0  0  0  0  0  0  0  0  0
   19.8726   48.1169   -8.8952 C   0  0  0  0  0  0  0  0  0  0  0  0
   18.7637   47.5597   -8.2102 C   0  0  0  0  0  0  0  0  0  0  0  0
   19.0055   46.7343   -7.0924 C   0  0  0  0  0  0  0  0  0  0  0  0
   17.4429   47.7648   -8.5549 O   0  0  0  0  0  0  0  0  0  0  0  0
   17.1255   48.4720   -9.7535 C   0  0  0  0  0  0  0  0  0  0  0  0
   17.2808   47.5738  -10.9943 C   0  0  0  0  0  0  0  0  0  0  0  0
   16.2436   46.4360  -11.0383 C   0  0  0  0  0  0  0  0  0  0  0  0
   16.4246   45.4757  -12.2311 C   0  0  0  0  0  0  0  0  0  0  0  0
   17.6818   44.7331  -12.1770 N   0  0  0  0  0  0  0  0  0  0  0  0
   17.8478   43.8814  -11.0785 C   0  0  0  0  0  0  0  0  0  0  0  0
   18.9971   44.0222  -10.2776 C   0  0  0  0  0  0  0  0  0  0  0  0
   19.1619   43.2419   -9.1137 C   0  0  0  0  0  0  0  0  0  0  0  0
   18.1898   42.2714   -8.7817 C   0  0  0  0  0  0  0  0  0  0  0  0
   17.0530   42.1064   -9.5965 C   0  0  0  0  0  0  0  0  0  0  0  0
   16.8768   42.9149  -10.7362 C   0  0  0  0  0  0  0  0  0  0  0  0
   16.0451   41.1034   -9.2525 C   0  0  0  0  0  0  0  0  0  0  0  0
   14.9568   41.0106   -9.8204 O   0  0  0  0  0  0  0  0  0  0  0  0
   16.3583   40.1207   -8.1235 C   0  0  0  0  0  0  0  0  0  0  0  0
   20.3578   43.4714   -8.2425 C   0  0  0  0  0  0  0  0  0  0  0  0
   21.4547   43.6909   -8.7294 O   0  0  0  0  0  0  0  0  0  0  0  0
   20.0640   43.5600   -6.9414 N   0  0  0  0  0  0  0  0  0  0  0  0
   22.0581   43.6117   -3.8142 O   0  0  0  0  0  0  0  0  0  0  0  0
   20.1275   43.1705   -4.1566 H   0  0  0  0  0  0  0  0  0  0  0  0
   21.9938   44.1672   -6.3348 H   0  0  0  0  0  0  0  0  0  0  0  0
   19.1870   42.1483  -12.7594 H   0  0  0  0  0  0  0  0  0  0  0  0
   19.7912   42.3519  -11.1216 H   0  0  0  0  0  0  0  0  0  0  0  0
   18.1103   41.9004  -11.3941 H   0  0  0  0  0  0  0  0  0  0  0  0
   18.8126   39.7483  -12.3823 H   0  0  0  0  0  0  0  0  0  0  0  0
   20.9941   40.3931  -13.3137 H   0  0  0  0  0  0  0  0  0  0  0  0
   21.1490   38.9490  -12.3262 H   0  0  0  0  0  0  0  0  0  0  0  0
   21.6925   40.5053  -11.7048 H   0  0  0  0  0  0  0  0  0  0  0  0
   17.7133   38.3250  -10.8613 H   0  0  0  0  0  0  0  0  0  0  0  0
   17.4812   37.3607   -8.5976 H   0  0  0  0  0  0  0  0  0  0  0  0
   18.9577   38.1066   -6.7590 H   0  0  0  0  0  0  0  0  0  0  0  0
   20.9423   40.8240   -9.4507 H   0  0  0  0  0  0  0  0  0  0  0  0
   21.9931   39.0783   -5.0840 H   0  0  0  0  0  0  0  0  0  0  0  0
   21.7172   37.9190   -6.4887 H   0  0  0  0  0  0  0  0  0  0  0  0
   22.8022   39.5637   -8.0591 H   0  0  0  0  0  0  0  0  0  0  0  0
   23.0781   40.7230   -6.6544 H   0  0  0  0  0  0  0  0  0  0  0  0
   19.5723   40.8570   -5.6154 H   0  0  0  0  0  0  0  0  0  0  0  0
   22.4006   41.5579   -5.4137 H   0  0  0  0  0  0  0  0  0  0  0  0
   21.3508   41.0330   -4.1206 H   0  0  0  0  0  0  0  0  0  0  0  0
   19.6557   45.4518   -4.8933 H   0  0  0  0  0  0  0  0  0  0  0  0
   21.3244   45.9339   -4.8400 H   0  0  0  0  0  0  0  0  0  0  0  0
   22.4246   46.8110   -7.0360 H   0  0  0  0  0  0  0  0  0  0  0  0
   22.0237   48.2797   -8.9922 H   0  0  0  0  0  0  0  0  0  0  0  0
   19.7499   48.7527   -9.7595 H   0  0  0  0  0  0  0  0  0  0  0  0
   18.1658   46.2981   -6.5718 H   0  0  0  0  0  0  0  0  0  0  0  0
   16.0889   48.8004   -9.6783 H   0  0  0  0  0  0  0  0  0  0  0  0
   17.7040   49.3912   -9.8455 H   0  0  0  0  0  0  0  0  0  0  0  0
   17.2164   48.1796  -11.8982 H   0  0  0  0  0  0  0  0  0  0  0  0
   18.2806   47.1396  -10.9941 H   0  0  0  0  0  0  0  0  0  0  0  0
   16.2618   45.8810  -10.1004 H   0  0  0  0  0  0  0  0  0  0  0  0
   15.2475   46.8748  -11.0956 H   0  0  0  0  0  0  0  0  0  0  0  0
   15.6012   44.7617  -12.2509 H   0  0  0  0  0  0  0  0  0  0  0  0
   16.3568   46.0303  -13.1669 H   0  0  0  0  0  0  0  0  0  0  0  0
   18.4909   45.2965  -12.3962 H   0  0  0  0  0  0  0  0  0  0  0  0
   19.7404   44.7673  -10.5200 H   0  0  0  0  0  0  0  0  0  0  0  0
   18.3087   41.6515   -7.9054 H   0  0  0  0  0  0  0  0  0  0  0  0
   15.9925   42.7805  -11.3415 H   0  0  0  0  0  0  0  0  0  0  0  0
   16.5631   40.6525   -7.1940 H   0  0  0  0  0  0  0  0  0  0  0  0
   17.2213   39.5045   -8.3769 H   0  0  0  0  0  0  0  0  0  0  0  0
   15.5102   39.4573   -7.9514 H   0  0  0  0  0  0  0  0  0  0  0  0
   19.1027   43.3948   -6.6793 H   0  0  0  0  0  0  0  0  0  0  0  0
   21.6743   44.3021   -3.2954 H   0  0  0  0  0  0  0  0  0  0  0  0
  1  2  1  0  0  0  0
  1 45  1  0  0  0  0
  1 46  1  0  0  0  0
  1 47  1  0  0  0  0
  2  3  1  0  0  0  0
  2  4  1  0  0  0  0
  2 48  1  0  0  0  0
  3 49  1  0  0  0  0
  3 50  1  0  0  0  0
  3 51  1  0  0  0  0
  4  9  1  0  0  0  0
  4  5  2  0  0  0  0
  5  6  1  0  0  0  0
  5 52  1  0  0  0  0
  6  7  2  0  0  0  0
  6 53  1  0  0  0  0
  7  8  1  0  0  0  0
  7 54  1  0  0  0  0
  8  9  2  0  0  0  0
  8 10  1  0  0  0  0
  9 55  1  0  0  0  0
 10 12  1  0  0  0  0
 10 11  1  0  0  0  0
 10 13  1  0  0  0  0
 11 12  1  0  0  0  0
 11 56  1  0  0  0  0
 11 57  1  0  0  0  0
 12 58  1  0  0  0  0
 12 59  1  0  0  0  0
 13 14  1  0  0  0  0
 13 60  1  0  0  0  0
 14 15  1  0  0  0  0
 14 61  1  0  0  0  0
 14 62  1  0  0  0  0
 15 43  1  1  0  0  0
 15 16  1  0  0  0  0
 15 42  1  0  0  0  0
 16 44  1  6  0  0  0
 16 41  1  0  0  0  0
 16 17  1  0  0  0  0
 17 18  1  0  0  0  0
 17 63  1  0  0  0  0
 17 64  1  0  0  0  0
 18 23  1  0  0  0  0
 18 19  2  0  0  0  0
 19 20  1  0  0  0  0
 19 65  1  0  0  0  0
 20 21  2  0  0  0  0
 20 66  1  0  0  0  0
 21 22  1  0  0  0  0
 21 67  1  0  0  0  0
 22 23  2  0  0  0  0
 22 24  1  0  0  0  0
 23 68  1  0  0  0  0
 24 25  1  0  0  0  0
 25 26  1  0  0  0  0
 25 69  1  0  0  0  0
 25 70  1  0  0  0  0
 26 27  1  0  0  0  0
 26 71  1  0  0  0  0
 26 72  1  0  0  0  0
 27 28  1  0  0  0  0
 27 73  1  0  0  0  0
 27 74  1  0  0  0  0
 28 29  1  0  0  0  0
 28 75  1  0  0  0  0
 28 76  1  0  0  0  0
 29 30  1  0  0  0  0
 29 77  1  0  0  0  0
 30 35  1  0  0  0  0
 30 31  2  0  0  0  0
 31 32  1  0  0  0  0
 31 78  1  0  0  0  0
 32 33  2  0  0  0  0
 32 39  1  0  0  0  0
 33 34  1  0  0  0  0
 33 79  1  0  0  0  0
 34 35  2  0  0  0  0
 34 36  1  0  0  0  0
 35 80  1  0  0  0  0
 36 37  2  0  0  0  0
 36 38  1  0  0  0  0
 38 81  1  0  0  0  0
 38 82  1  0  0  0  0
 38 83  1  0  0  0  0
 39 40  2  0  0  0  0
 39 41  1  0  0  0  0
 41 84  1  0  0  0  0
 42 85  1  0  0  0  0
M  END
