BACE_1.smi:1
 OpenBabel09281823033D
Structure written by MMmdl.
 87 88  0  0  1  0  0  0  0  0999 V2000
   31.7685   42.0711  -12.8563 C   0  0  0  0  0  0  0  0  0  0  0  0
   30.8502   43.2474  -12.5083 C   0  0  0  0  0  0  0  0  0  0  0  0
   29.3728   42.8527  -12.3733 C   0  0  0  0  0  0  0  0  0  0  0  0
   29.0426   42.0017  -11.1323 C   0  0  0  0  0  0  0  0  0  0  0  0
   27.6081   41.7516  -11.0769 N   0  0  0  0  0  0  0  0  0  0  0  0
   26.7011   42.6022  -10.5721 C   0  0  0  0  0  0  0  0  0  0  0  0
   27.0004   43.5589   -9.8582 O   0  0  0  0  0  0  0  0  0  0  0  0
   25.2455   42.3884  -11.0053 C   0  0  2  0  0  0  0  0  0  0  0  0
   24.7954   43.5619  -11.8974 C   0  0  0  0  0  0  0  0  0  0  0  0
   24.2793   42.1458   -9.8132 C   0  0  0  0  0  0  0  0  0  0  0  0
   23.2004   41.0749  -10.1016 C   0  0  1  0  0  0  0  0  0  0  0  0
   22.2368   40.7883   -8.9230 C   0  0  2  0  0  0  0  0  0  0  0  0
   21.3279   39.5584   -9.1994 C   0  0  0  0  0  0  0  0  0  0  0  0
   20.2490   39.2463   -8.1298 C   0  0  1  0  0  0  0  0  0  0  0  0
   19.1579   38.3126   -8.7103 C   0  0  0  0  0  0  0  0  0  0  0  0
   17.9280   38.0460   -7.8119 C   0  0  0  0  0  0  0  0  0  0  0  0
   17.2336   39.2851   -7.2131 C   0  0  0  0  0  0  0  0  0  0  0  0
   16.7293   40.3170   -8.2437 C   0  0  0  0  0  0  0  0  0  0  0  0
   16.1309   41.5847   -7.5912 C   0  0  0  0  0  0  0  0  0  0  0  0
   15.7761   42.6130   -8.5860 N   0  0  0  0  0  0  0  0  0  0  0  0
   16.4819   43.7481   -8.8508 C   0  0  0  0  0  0  0  0  0  0  0  0
   16.1036   44.5849   -9.6741 O   0  0  0  0  0  0  0  0  0  0  0  0
   17.7411   44.0508   -8.0884 C   0  0  0  0  0  0  0  0  0  0  0  0
   18.8595   43.1962   -8.1403 C   0  0  0  0  0  0  0  0  0  0  0  0
   20.0563   43.5269   -7.4666 C   0  0  0  0  0  0  0  0  0  0  0  0
   20.1298   44.7307   -6.7343 C   0  0  0  0  0  0  0  0  0  0  0  0
   19.0316   45.6255   -6.7126 C   0  0  0  0  0  0  0  0  0  0  0  0
   17.8471   45.2665   -7.3851 C   0  0  0  0  0  0  0  0  0  0  0  0
   19.0371   46.8458   -6.0727 O   0  0  0  0  0  0  0  0  0  0  0  0
   20.2856   47.4897   -5.8398 C   0  0  0  0  0  0  0  0  0  0  0  0
   20.9511   47.9407   -7.1478 C   0  0  0  0  0  0  0  0  0  0  0  0
   21.2215   42.5828   -7.4961 C   0  0  0  0  0  0  0  0  0  0  0  0
   21.9293   42.4096   -6.5060 O   0  0  0  0  0  0  0  0  0  0  0  0
   21.4080   41.9650   -8.6708 N   0  0  0  0  0  0  0  0  0  0  0  0
   14.4748   42.3894   -9.2391 C   0  0  0  0  0  0  0  0  0  0  0  0
   13.3865   43.3649   -8.7496 C   0  0  0  0  0  0  0  0  0  0  0  0
   20.8782   38.6996   -6.8365 C   0  0  0  0  0  0  0  0  0  0  0  0
   22.4403   41.4356  -11.2400 O   0  0  0  0  0  0  0  0  0  0  0  0
   25.2603   41.4971  -11.6268 H   0  0  0  0  0  0  0  0  0  0  0  0
   23.7145   40.1505  -10.3490 H   0  0  0  0  0  0  0  0  0  0  0  0
   22.8470   40.5677   -8.0460 H   0  0  0  0  0  0  0  0  0  0  0  0
   19.7422   40.1737   -7.8738 H   0  0  0  0  0  0  0  0  0  0  0  0
   32.7878   42.4166  -13.0341 H   0  0  0  0  0  0  0  0  0  0  0  0
   31.4307   41.5451  -13.7554 H   0  0  0  0  0  0  0  0  0  0  0  0
   31.8038   41.3502  -12.0404 H   0  0  0  0  0  0  0  0  0  0  0  0
   31.1936   43.7370  -11.5930 H   0  0  0  0  0  0  0  0  0  0  0  0
   30.9365   43.9936  -13.3012 H   0  0  0  0  0  0  0  0  0  0  0  0
   28.7829   43.7692  -12.3378 H   0  0  0  0  0  0  0  0  0  0  0  0
   29.0537   42.3259  -13.2752 H   0  0  0  0  0  0  0  0  0  0  0  0
   29.5516   41.0380  -11.1832 H   0  0  0  0  0  0  0  0  0  0  0  0
   29.3831   42.4942  -10.2187 H   0  0  0  0  0  0  0  0  0  0  0  0
   27.2757   40.9431  -11.5821 H   0  0  0  0  0  0  0  0  0  0  0  0
   25.4789   43.7070  -12.7346 H   0  0  0  0  0  0  0  0  0  0  0  0
   24.7582   44.4933  -11.3354 H   0  0  0  0  0  0  0  0  0  0  0  0
   23.8082   43.3948  -12.3219 H   0  0  0  0  0  0  0  0  0  0  0  0
   24.8450   41.8199   -8.9392 H   0  0  0  0  0  0  0  0  0  0  0  0
   23.8129   43.0866   -9.5190 H   0  0  0  0  0  0  0  0  0  0  0  0
   20.8205   39.7253  -10.1502 H   0  0  0  0  0  0  0  0  0  0  0  0
   21.9475   38.6742   -9.3576 H   0  0  0  0  0  0  0  0  0  0  0  0
   18.7970   38.7303   -9.6506 H   0  0  0  0  0  0  0  0  0  0  0  0
   19.6122   37.3594   -8.9777 H   0  0  0  0  0  0  0  0  0  0  0  0
   17.1965   37.4733   -8.3840 H   0  0  0  0  0  0  0  0  0  0  0  0
   18.2198   37.3907   -6.9915 H   0  0  0  0  0  0  0  0  0  0  0  0
   16.3904   38.9538   -6.6037 H   0  0  0  0  0  0  0  0  0  0  0  0
   17.9199   39.7497   -6.5083 H   0  0  0  0  0  0  0  0  0  0  0  0
   17.5367   40.5936   -8.9143 H   0  0  0  0  0  0  0  0  0  0  0  0
   15.9783   39.8419   -8.8756 H   0  0  0  0  0  0  0  0  0  0  0  0
   15.2423   41.3105   -7.0194 H   0  0  0  0  0  0  0  0  0  0  0  0
   16.8107   41.9859   -6.8402 H   0  0  0  0  0  0  0  0  0  0  0  0
   18.7994   42.2818   -8.7070 H   0  0  0  0  0  0  0  0  0  0  0  0
   21.0466   44.9624   -6.2135 H   0  0  0  0  0  0  0  0  0  0  0  0
   17.0072   45.9454   -7.3691 H   0  0  0  0  0  0  0  0  0  0  0  0
   20.0760   48.3743   -5.2400 H   0  0  0  0  0  0  0  0  0  0  0  0
   20.9531   46.8720   -5.2401 H   0  0  0  0  0  0  0  0  0  0  0  0
   21.8692   48.4902   -6.9425 H   0  0  0  0  0  0  0  0  0  0  0  0
   20.2921   48.5959   -7.7181 H   0  0  0  0  0  0  0  0  0  0  0  0
   21.2141   47.0967   -7.7847 H   0  0  0  0  0  0  0  0  0  0  0  0
   20.8391   42.2586   -9.4515 H   0  0  0  0  0  0  0  0  0  0  0  0
   14.5926   42.4742  -10.3206 H   0  0  0  0  0  0  0  0  0  0  0  0
   14.1325   41.3661   -9.0719 H   0  0  0  0  0  0  0  0  0  0  0  0
   12.4217   43.1116   -9.1967 H   0  0  0  0  0  0  0  0  0  0  0  0
   13.6077   44.3943   -9.0254 H   0  0  0  0  0  0  0  0  0  0  0  0
   13.2769   43.3344   -7.6634 H   0  0  0  0  0  0  0  0  0  0  0  0
   21.3888   37.7503   -6.9998 H   0  0  0  0  0  0  0  0  0  0  0  0
   20.1212   38.5424   -6.0679 H   0  0  0  0  0  0  0  0  0  0  0  0
   21.6036   39.4001   -6.4201 H   0  0  0  0  0  0  0  0  0  0  0  0
   22.9788   41.2656  -12.0063 H   0  0  0  0  0  0  0  0  0  0  0  0
  1  2  1  0  0  0  0
  1 43  1  0  0  0  0
  1 44  1  0  0  0  0
  1 45  1  0  0  0  0
  2  3  1  0  0  0  0
  2 46  1  0  0  0  0
  2 47  1  0  0  0  0
  3  4  1  0  0  0  0
  3 48  1  0  0  0  0
  3 49  1  0  0  0  0
  4  5  1  0  0  0  0
  4 50  1  0  0  0  0
  4 51  1  0  0  0  0
  5  6  1  0  0  0  0
  5 52  1  0  0  0  0
  6  7  2  0  0  0  0
  6  8  1  0  0  0  0
  8 39  1  6  0  0  0
  8  9  1  0  0  0  0
  8 10  1  0  0  0  0
  9 53  1  0  0  0  0
  9 54  1  0  0  0  0
  9 55  1  0  0  0  0
 10 11  1  0  0  0  0
 10 56  1  0  0  0  0
 10 57  1  0  0  0  0
 11 40  1  6  0  0  0
 11 12  1  0  0  0  0
 11 38  1  0  0  0  0
 12 41  1  1  0  0  0
 12 34  1  0  0  0  0
 12 13  1  0  0  0  0
 13 14  1  0  0  0  0
 13 58  1  0  0  0  0
 13 59  1  0  0  0  0
 14 42  1  1  0  0  0
 14 15  1  0  0  0  0
 14 37  1  0  0  0  0
 15 16  1  0  0  0  0
 15 60  1  0  0  0  0
 15 61  1  0  0  0  0
 16 17  1  0  0  0  0
 16 62  1  0  0  0  0
 16 63  1  0  0  0  0
 17 18  1  0  0  0  0
 17 64  1  0  0  0  0
 17 65  1  0  0  0  0
 18 19  1  0  0  0  0
 18 66  1  0  0  0  0
 18 67  1  0  0  0  0
 19 20  1  0  0  0  0
 19 68  1  0  0  0  0
 19 69  1  0  0  0  0
 20 21  1  0  0  0  0
 20 35  1  0  0  0  0
 21 22  2  0  0  0  0
 21 23  1  0  0  0  0
 23 28  1  0  0  0  0
 23 24  2  0  0  0  0
 24 25  1  0  0  0  0
 24 70  1  0  0  0  0
 25 26  2  0  0  0  0
 25 32  1  0  0  0  0
 26 27  1  0  0  0  0
 26 71  1  0  0  0  0
 27 28  2  0  0  0  0
 27 29  1  0  0  0  0
 28 72  1  0  0  0  0
 29 30  1  0  0  0  0
 30 31  1  0  0  0  0
 30 73  1  0  0  0  0
 30 74  1  0  0  0  0
 31 75  1  0  0  0  0
 31 76  1  0  0  0  0
 31 77  1  0  0  0  0
 32 33  2  0  0  0  0
 32 34  1  0  0  0  0
 34 78  1  0  0  0  0
 35 36  1  0  0  0  0
 35 79  1  0  0  0  0
 35 80  1  0  0  0  0
 36 81  1  0  0  0  0
 36 82  1  0  0  0  0
 36 83  1  0  0  0  0
 37 84  1  0  0  0  0
 37 85  1  0  0  0  0
 37 86  1  0  0  0  0
 38 87  1  0  0  0  0
M  END
