BACE_9.smi:1
 OpenBabel09281823033D
Structure written by MMmdl.
 87 89  0  0  1  0  0  0  0  0999 V2000
   18.7891   46.7451   -6.6500 C   0  0  0  0  0  0  0  0  0  0  0  0
   19.1080   45.3178   -7.1246 C   0  0  2  0  0  0  0  0  0  0  0  0
   20.6196   45.0358   -6.9963 C   0  0  0  0  0  0  0  0  0  0  0  0
   20.9827   43.5794   -7.3067 C   0  0  0  0  0  0  0  0  0  0  0  0
   22.4722   43.2578   -7.1121 C   0  0  0  0  0  0  0  0  0  0  0  0
   22.7940   41.8070   -7.4985 C   0  0  0  0  0  0  0  0  0  0  0  0
   22.2856   40.7821   -6.4624 C   0  0  0  0  0  0  0  0  0  0  0  0
   22.3831   39.3193   -6.9256 C   0  0  0  0  0  0  0  0  0  0  0  0
   21.1449   38.8174   -7.6791 C   0  0  0  0  0  0  0  0  0  0  0  0
   20.9739   39.4760   -8.9634 N   0  0  0  0  0  0  0  0  0  0  0  0
   19.6547   39.6856   -9.3768 C   0  0  0  0  0  0  0  0  0  0  0  0
   18.6653   38.6938   -9.2115 C   0  0  0  0  0  0  0  0  0  0  0  0
   17.3461   38.9187   -9.6414 C   0  0  0  0  0  0  0  0  0  0  0  0
   17.0141   40.1492  -10.2547 C   0  0  0  0  0  0  0  0  0  0  0  0
   17.9881   41.1623  -10.3894 C   0  0  0  0  0  0  0  0  0  0  0  0
   19.3111   40.9188   -9.9629 C   0  0  0  0  0  0  0  0  0  0  0  0
   17.6251   42.4802  -11.0096 C   0  0  0  0  0  0  0  0  0  0  0  0
   17.2637   42.5476  -12.1846 O   0  0  0  0  0  0  0  0  0  0  0  0
   17.6889   43.5913  -10.2547 N   0  0  0  0  0  0  0  0  0  0  0  0
   17.8344   43.7421   -8.8053 C   0  0  1  0  0  0  0  0  0  0  0  0
   18.5799   45.0835   -8.5629 C   0  0  0  0  0  0  0  0  0  0  0  0
   16.4586   43.6731   -8.0753 C   0  0  1  0  0  0  0  0  0  0  0  0
   15.3947   44.7579   -8.4279 C   0  0  0  0  0  0  0  0  0  0  0  0
   14.1674   44.2386   -9.0581 N   0  0  0  0  0  0  0  0  0  0  0  0
   14.2730   43.8154  -10.4573 C   0  0  0  0  0  0  0  0  0  0  0  0
   14.3316   44.9508  -11.4735 C   0  0  0  0  0  0  0  0  0  0  0  0
   13.2192   45.2092  -12.2955 C   0  0  0  0  0  0  0  0  0  0  0  0
   13.2585   46.2621  -13.2303 C   0  0  0  0  0  0  0  0  0  0  0  0
   14.4110   47.0616  -13.3576 C   0  0  0  0  0  0  0  0  0  0  0  0
   15.5417   46.7965  -12.5588 C   0  0  0  0  0  0  0  0  0  0  0  0
   15.4894   45.7467  -11.6209 C   0  0  0  0  0  0  0  0  0  0  0  0
   16.8044   47.6412  -12.7050 C   0  0  0  0  0  0  0  0  0  0  0  0
   18.0788   46.7844  -12.8327 C   0  0  0  0  0  0  0  0  0  0  0  0
   16.9264   48.6533  -11.5562 C   0  0  0  0  0  0  0  0  0  0  0  0
   15.9056   42.3664   -8.1201 O   0  0  0  0  0  0  0  0  0  0  0  0
   16.3246   37.8049   -9.4647 C   0  0  0  0  0  0  0  0  0  0  0  0
   14.9750   38.2116   -9.6397 O   0  0  0  0  0  0  0  0  0  0  0  0
   14.4167   38.8250   -8.4874 C   0  0  0  0  0  0  0  0  0  0  0  0
   18.5980   44.6434   -6.4381 H   0  0  0  0  0  0  0  0  0  0  0  0
   18.4594   42.9372   -8.4180 H   0  0  0  0  0  0  0  0  0  0  0  0
   16.6852   43.8132   -7.0177 H   0  0  0  0  0  0  0  0  0  0  0  0
   19.2812   47.4897   -7.2742 H   0  0  0  0  0  0  0  0  0  0  0  0
   19.1206   46.9006   -5.6232 H   0  0  0  0  0  0  0  0  0  0  0  0
   17.7161   46.9409   -6.6813 H   0  0  0  0  0  0  0  0  0  0  0  0
   21.1838   45.7003   -7.6531 H   0  0  0  0  0  0  0  0  0  0  0  0
   20.9427   45.2657   -5.9797 H   0  0  0  0  0  0  0  0  0  0  0  0
   20.3703   42.9305   -6.6812 H   0  0  0  0  0  0  0  0  0  0  0  0
   20.7204   43.3497   -8.3394 H   0  0  0  0  0  0  0  0  0  0  0  0
   23.0602   43.9255   -7.7439 H   0  0  0  0  0  0  0  0  0  0  0  0
   22.7815   43.4553   -6.0855 H   0  0  0  0  0  0  0  0  0  0  0  0
   22.3672   41.6151   -8.4811 H   0  0  0  0  0  0  0  0  0  0  0  0
   23.8708   41.6887   -7.6309 H   0  0  0  0  0  0  0  0  0  0  0  0
   22.8606   40.9066   -5.5423 H   0  0  0  0  0  0  0  0  0  0  0  0
   21.2530   40.9807   -6.1819 H   0  0  0  0  0  0  0  0  0  0  0  0
   23.2920   39.1519   -7.5018 H   0  0  0  0  0  0  0  0  0  0  0  0
   22.4598   38.6996   -6.0322 H   0  0  0  0  0  0  0  0  0  0  0  0
   21.2397   37.7503   -7.8603 H   0  0  0  0  0  0  0  0  0  0  0  0
   20.2614   38.9551   -7.0525 H   0  0  0  0  0  0  0  0  0  0  0  0
   21.6301   40.2191   -9.1543 H   0  0  0  0  0  0  0  0  0  0  0  0
   18.9203   37.7429   -8.7629 H   0  0  0  0  0  0  0  0  0  0  0  0
   16.0045   40.3262  -10.5957 H   0  0  0  0  0  0  0  0  0  0  0  0
   20.0613   41.6886  -10.0816 H   0  0  0  0  0  0  0  0  0  0  0  0
   17.4934   44.4447  -10.7531 H   0  0  0  0  0  0  0  0  0  0  0  0
   17.9312   45.9080   -8.8545 H   0  0  0  0  0  0  0  0  0  0  0  0
   19.4166   45.1627   -9.2583 H   0  0  0  0  0  0  0  0  0  0  0  0
   15.1026   45.2216   -7.4839 H   0  0  0  0  0  0  0  0  0  0  0  0
   15.8108   45.5788   -9.0003 H   0  0  0  0  0  0  0  0  0  0  0  0
   13.9081   43.4106   -8.5239 H   0  0  0  0  0  0  0  0  0  0  0  0
   15.1154   43.1460  -10.5932 H   0  0  0  0  0  0  0  0  0  0  0  0
   13.3983   43.2084  -10.6932 H   0  0  0  0  0  0  0  0  0  0  0  0
   12.3344   44.5955  -12.2064 H   0  0  0  0  0  0  0  0  0  0  0  0
   12.4053   46.4492  -13.8661 H   0  0  0  0  0  0  0  0  0  0  0  0
   14.4306   47.8636  -14.0817 H   0  0  0  0  0  0  0  0  0  0  0  0
   16.3506   45.5695  -11.0051 H   0  0  0  0  0  0  0  0  0  0  0  0
   16.7115   48.2095  -13.6318 H   0  0  0  0  0  0  0  0  0  0  0  0
   17.9966   46.0593  -13.6397 H   0  0  0  0  0  0  0  0  0  0  0  0
   18.2993   46.2387  -11.9144 H   0  0  0  0  0  0  0  0  0  0  0  0
   18.9461   47.4107  -13.0454 H   0  0  0  0  0  0  0  0  0  0  0  0
   16.0606   49.3134  -11.5300 H   0  0  0  0  0  0  0  0  0  0  0  0
   17.8143   49.2753  -11.6742 H   0  0  0  0  0  0  0  0  0  0  0  0
   16.9995   48.1557  -10.5890 H   0  0  0  0  0  0  0  0  0  0  0  0
   16.1815   41.8766   -7.3487 H   0  0  0  0  0  0  0  0  0  0  0  0
   16.5392   37.0373  -10.2070 H   0  0  0  0  0  0  0  0  0  0  0  0
   16.4519   37.3260   -8.4909 H   0  0  0  0  0  0  0  0  0  0  0  0
   13.3806   39.0889   -8.6946 H   0  0  0  0  0  0  0  0  0  0  0  0
   14.9485   39.7351   -8.2170 H   0  0  0  0  0  0  0  0  0  0  0  0
   14.4281   38.1503   -7.6323 H   0  0  0  0  0  0  0  0  0  0  0  0
  1  2  1  0  0  0  0
  1 42  1  0  0  0  0
  1 43  1  0  0  0  0
  1 44  1  0  0  0  0
  2 39  1  1  0  0  0
  2 21  1  0  0  0  0
  2  3  1  0  0  0  0
  3  4  1  0  0  0  0
  3 45  1  0  0  0  0
  3 46  1  0  0  0  0
  4  5  1  0  0  0  0
  4 47  1  0  0  0  0
  4 48  1  0  0  0  0
  5  6  1  0  0  0  0
  5 49  1  0  0  0  0
  5 50  1  0  0  0  0
  6  7  1  0  0  0  0
  6 51  1  0  0  0  0
  6 52  1  0  0  0  0
  7  8  1  0  0  0  0
  7 53  1  0  0  0  0
  7 54  1  0  0  0  0
  8  9  1  0  0  0  0
  8 55  1  0  0  0  0
  8 56  1  0  0  0  0
  9 10  1  0  0  0  0
  9 57  1  0  0  0  0
  9 58  1  0  0  0  0
 10 11  1  0  0  0  0
 10 59  1  0  0  0  0
 11 16  1  0  0  0  0
 11 12  2  0  0  0  0
 12 13  1  0  0  0  0
 12 60  1  0  0  0  0
 13 14  2  0  0  0  0
 13 36  1  0  0  0  0
 14 15  1  0  0  0  0
 14 61  1  0  0  0  0
 15 16  2  0  0  0  0
 15 17  1  0  0  0  0
 16 62  1  0  0  0  0
 17 18  2  0  0  0  0
 17 19  1  0  0  0  0
 19 20  1  0  0  0  0
 19 63  1  0  0  0  0
 20 40  1  1  0  0  0
 20 21  1  0  0  0  0
 20 22  1  0  0  0  0
 21 64  1  0  0  0  0
 21 65  1  0  0  0  0
 22 41  1  1  0  0  0
 22 23  1  0  0  0  0
 22 35  1  0  0  0  0
 23 24  1  0  0  0  0
 23 66  1  0  0  0  0
 23 67  1  0  0  0  0
 24 25  1  0  0  0  0
 24 68  1  0  0  0  0
 25 26  1  0  0  0  0
 25 69  1  0  0  0  0
 25 70  1  0  0  0  0
 26 31  1  0  0  0  0
 26 27  2  0  0  0  0
 27 28  1  0  0  0  0
 27 71  1  0  0  0  0
 28 29  2  0  0  0  0
 28 72  1  0  0  0  0
 29 30  1  0  0  0  0
 29 73  1  0  0  0  0
 30 31  2  0  0  0  0
 30 32  1  0  0  0  0
 31 74  1  0  0  0  0
 32 33  1  0  0  0  0
 32 34  1  0  0  0  0
 32 75  1  0  0  0  0
 33 76  1  0  0  0  0
 33 77  1  0  0  0  0
 33 78  1  0  0  0  0
 34 79  1  0  0  0  0
 34 80  1  0  0  0  0
 34 81  1  0  0  0  0
 35 82  1  0  0  0  0
 36 37  1  0  0  0  0
 36 83  1  0  0  0  0
 36 84  1  0  0  0  0
 37 38  1  0  0  0  0
 38 85  1  0  0  0  0
 38 86  1  0  0  0  0
 38 87  1  0  0  0  0
M  END
