BACE_14.smi:1
 OpenBabel09281823033D
Structure written by MMmdl.
 85 89  0  0  1  0  0  0  0  0999 V2000
   20.6664   40.0172  -12.4259 C   0  0  0  0  0  0  0  0  0  0  0  0
   21.0834   40.6014  -11.0663 C   0  0  0  0  0  0  0  0  0  0  0  0
   20.8081   42.1107  -10.9947 C   0  0  0  0  0  0  0  0  0  0  0  0
   20.4298   39.8727   -9.8966 C   0  0  0  0  0  0  0  0  0  0  0  0
   21.2349   39.2810   -8.8998 C   0  0  0  0  0  0  0  0  0  0  0  0
   20.6389   38.6389   -7.7979 C   0  0  0  0  0  0  0  0  0  0  0  0
   19.2365   38.5750   -7.6901 C   0  0  0  0  0  0  0  0  0  0  0  0
   18.4178   39.1503   -8.6846 C   0  0  0  0  0  0  0  0  0  0  0  0
   19.0228   39.8019   -9.7812 C   0  0  0  0  0  0  0  0  0  0  0  0
   16.9242   39.0781   -8.5753 C   0  0  0  0  0  0  0  0  0  0  0  0
   16.1265   38.3342   -9.6419 C   0  0  0  0  0  0  0  0  0  0  0  0
   16.2631   37.7501   -8.2694 C   0  0  0  0  0  0  0  0  0  0  0  0
   16.3835   40.2555   -7.8783 N   0  0  0  0  0  0  0  0  0  0  0  0
   15.1644   40.8912   -8.3921 C   0  0  0  0  0  0  0  0  0  0  0  0
   15.3356   41.4930   -9.8120 C   0  0  2  0  0  0  0  0  0  0  0  0
   15.8323   42.9619   -9.8832 C   0  0  2  0  0  0  0  0  0  0  0  0
   16.3547   43.3000  -11.2985 C   0  0  0  0  0  0  0  0  0  0  0  0
   16.7247   44.7597  -11.5094 C   0  0  0  0  0  0  0  0  0  0  0  0
   15.7249   45.6925  -11.8461 C   0  0  0  0  0  0  0  0  0  0  0  0
   16.0630   47.0421  -12.0536 C   0  0  0  0  0  0  0  0  0  0  0  0
   17.3984   47.4684  -11.9153 C   0  0  0  0  0  0  0  0  0  0  0  0
   18.4151   46.5425  -11.5741 C   0  0  0  0  0  0  0  0  0  0  0  0
   18.0634   45.1898  -11.3853 C   0  0  0  0  0  0  0  0  0  0  0  0
   19.7482   46.8686  -11.4194 O   0  0  0  0  0  0  0  0  0  0  0  0
   20.1386   48.2378  -11.3137 C   0  0  0  0  0  0  0  0  0  0  0  0
   19.7546   48.8420   -9.9487 C   0  0  0  0  0  0  0  0  0  0  0  0
   20.3852   48.0808   -8.7725 C   0  0  0  0  0  0  0  0  0  0  0  0
   19.8407   48.5283   -7.3980 C   0  0  0  0  0  0  0  0  0  0  0  0
   20.1679   47.5881   -6.3280 N   0  0  0  0  0  0  0  0  0  0  0  0
   19.7020   46.2671   -6.4422 C   0  0  0  0  0  0  0  0  0  0  0  0
   18.4931   45.9582   -7.1012 C   0  0  0  0  0  0  0  0  0  0  0  0
   18.1120   44.6217   -7.3288 C   0  0  0  0  0  0  0  0  0  0  0  0
   18.9289   43.5778   -6.8400 C   0  0  0  0  0  0  0  0  0  0  0  0
   20.1136   43.8668   -6.1237 C   0  0  0  0  0  0  0  0  0  0  0  0
   20.4945   45.2167   -5.9388 C   0  0  0  0  0  0  0  0  0  0  0  0
   20.9657   42.7492   -5.6289 C   0  0  0  0  0  0  0  0  0  0  0  0
   20.8599   41.5865   -6.0183 O   0  0  0  0  0  0  0  0  0  0  0  0
   22.0241   43.0794   -4.5761 C   0  0  0  0  0  0  0  0  0  0  0  0
   16.8443   44.3517   -8.0827 C   0  0  0  0  0  0  0  0  0  0  0  0
   15.9103   45.1571   -8.0405 O   0  0  0  0  0  0  0  0  0  0  0  0
   16.8574   43.2721   -8.8828 N   0  0  0  0  0  0  0  0  0  0  0  0
   14.0611   41.4633  -10.4339 O   0  0  0  0  0  0  0  0  0  0  0  0
   15.9941   40.8653  -10.4110 H   0  0  0  0  0  0  0  0  0  0  0  0
   14.9636   43.5953   -9.6911 H   0  0  0  0  0  0  0  0  0  0  0  0
   21.2054   40.5034  -13.2405 H   0  0  0  0  0  0  0  0  0  0  0  0
   19.6000   40.1478  -12.6094 H   0  0  0  0  0  0  0  0  0  0  0  0
   20.8863   38.9510  -12.4779 H   0  0  0  0  0  0  0  0  0  0  0  0
   22.1636   40.4668  -10.9820 H   0  0  0  0  0  0  0  0  0  0  0  0
   21.3293   42.6417  -11.7916 H   0  0  0  0  0  0  0  0  0  0  0  0
   21.1482   42.5268  -10.0454 H   0  0  0  0  0  0  0  0  0  0  0  0
   19.7433   42.3234  -11.0902 H   0  0  0  0  0  0  0  0  0  0  0  0
   22.3127   39.3260   -8.9661 H   0  0  0  0  0  0  0  0  0  0  0  0
   21.2580   38.1973   -7.0306 H   0  0  0  0  0  0  0  0  0  0  0  0
   18.7835   38.0864   -6.8391 H   0  0  0  0  0  0  0  0  0  0  0  0
   18.3970   40.2504  -10.5385 H   0  0  0  0  0  0  0  0  0  0  0  0
   15.1210   38.6442   -9.9156 H   0  0  0  0  0  0  0  0  0  0  0  0
   16.6916   37.8563  -10.4383 H   0  0  0  0  0  0  0  0  0  0  0  0
   16.8994   36.8738   -8.1597 H   0  0  0  0  0  0  0  0  0  0  0  0
   15.3730   37.7531   -7.6406 H   0  0  0  0  0  0  0  0  0  0  0  0
   17.1101   40.9249   -7.6495 H   0  0  0  0  0  0  0  0  0  0  0  0
   14.8315   41.6647   -7.6987 H   0  0  0  0  0  0  0  0  0  0  0  0
   14.3662   40.1482   -8.3919 H   0  0  0  0  0  0  0  0  0  0  0  0
   17.2176   42.6775  -11.5386 H   0  0  0  0  0  0  0  0  0  0  0  0
   15.5876   43.0479  -12.0277 H   0  0  0  0  0  0  0  0  0  0  0  0
   14.6985   45.3707  -11.9470 H   0  0  0  0  0  0  0  0  0  0  0  0
   15.2979   47.7551  -12.3196 H   0  0  0  0  0  0  0  0  0  0  0  0
   17.6154   48.5116  -12.0825 H   0  0  0  0  0  0  0  0  0  0  0  0
   18.8346   44.4819  -11.1238 H   0  0  0  0  0  0  0  0  0  0  0  0
   21.2223   48.2708  -11.4225 H   0  0  0  0  0  0  0  0  0  0  0  0
   19.7482   48.8317  -12.1407 H   0  0  0  0  0  0  0  0  0  0  0  0
   20.0618   49.8878   -9.9112 H   0  0  0  0  0  0  0  0  0  0  0  0
   18.6694   48.8424   -9.8412 H   0  0  0  0  0  0  0  0  0  0  0  0
   20.1903   47.0197   -8.9273 H   0  0  0  0  0  0  0  0  0  0  0  0
   21.4707   48.1857   -8.7962 H   0  0  0  0  0  0  0  0  0  0  0  0
   20.2608   49.5010   -7.1395 H   0  0  0  0  0  0  0  0  0  0  0  0
   18.7613   48.6754   -7.4364 H   0  0  0  0  0  0  0  0  0  0  0  0
   21.0894   47.6973   -5.9293 H   0  0  0  0  0  0  0  0  0  0  0  0
   17.8621   46.7460   -7.4845 H   0  0  0  0  0  0  0  0  0  0  0  0
   18.6363   42.5471   -6.9861 H   0  0  0  0  0  0  0  0  0  0  0  0
   21.4181   45.4603   -5.4354 H   0  0  0  0  0  0  0  0  0  0  0  0
   21.6029   43.7107   -3.7914 H   0  0  0  0  0  0  0  0  0  0  0  0
   22.8709   43.5947   -5.0329 H   0  0  0  0  0  0  0  0  0  0  0  0
   22.3924   42.1633   -4.1144 H   0  0  0  0  0  0  0  0  0  0  0  0
   17.6841   42.6933   -8.8747 H   0  0  0  0  0  0  0  0  0  0  0  0
   13.4512   41.0119   -9.8627 H   0  0  0  0  0  0  0  0  0  0  0  0
  1  2  1  0  0  0  0
  1 45  1  0  0  0  0
  1 46  1  0  0  0  0
  1 47  1  0  0  0  0
  2  3  1  0  0  0  0
  2  4  1  0  0  0  0
  2 48  1  0  0  0  0
  3 49  1  0  0  0  0
  3 50  1  0  0  0  0
  3 51  1  0  0  0  0
  4  9  1  0  0  0  0
  4  5  2  0  0  0  0
  5  6  1  0  0  0  0
  5 52  1  0  0  0  0
  6  7  2  0  0  0  0
  6 53  1  0  0  0  0
  7  8  1  0  0  0  0
  7 54  1  0  0  0  0
  8  9  2  0  0  0  0
  8 10  1  0  0  0  0
  9 55  1  0  0  0  0
 10 12  1  0  0  0  0
 10 11  1  0  0  0  0
 10 13  1  0  0  0  0
 11 12  1  0  0  0  0
 11 56  1  0  0  0  0
 11 57  1  0  0  0  0
 12 58  1  0  0  0  0
 12 59  1  0  0  0  0
 13 14  1  0  0  0  0
 13 60  1  0  0  0  0
 14 15  1  0  0  0  0
 14 61  1  0  0  0  0
 14 62  1  0  0  0  0
 15 43  1  6  0  0  0
 15 16  1  0  0  0  0
 15 42  1  0  0  0  0
 16 44  1  1  0  0  0
 16 41  1  0  0  0  0
 16 17  1  0  0  0  0
 17 18  1  0  0  0  0
 17 63  1  0  0  0  0
 17 64  1  0  0  0  0
 18 23  1  0  0  0  0
 18 19  2  0  0  0  0
 19 20  1  0  0  0  0
 19 65  1  0  0  0  0
 20 21  2  0  0  0  0
 20 66  1  0  0  0  0
 21 22  1  0  0  0  0
 21 67  1  0  0  0  0
 22 23  2  0  0  0  0
 22 24  1  0  0  0  0
 23 68  1  0  0  0  0
 24 25  1  0  0  0  0
 25 26  1  0  0  0  0
 25 69  1  0  0  0  0
 25 70  1  0  0  0  0
 26 27  1  0  0  0  0
 26 71  1  0  0  0  0
 26 72  1  0  0  0  0
 27 28  1  0  0  0  0
 27 73  1  0  0  0  0
 27 74  1  0  0  0  0
 28 29  1  0  0  0  0
 28 75  1  0  0  0  0
 28 76  1  0  0  0  0
 29 30  1  0  0  0  0
 29 77  1  0  0  0  0
 30 35  1  0  0  0  0
 30 31  2  0  0  0  0
 31 32  1  0  0  0  0
 31 78  1  0  0  0  0
 32 33  2  0  0  0  0
 32 39  1  0  0  0  0
 33 34  1  0  0  0  0
 33 79  1  0  0  0  0
 34 35  2  0  0  0  0
 34 36  1  0  0  0  0
 35 80  1  0  0  0  0
 36 37  2  0  0  0  0
 36 38  1  0  0  0  0
 38 81  1  0  0  0  0
 38 82  1  0  0  0  0
 38 83  1  0  0  0  0
 39 40  2  0  0  0  0
 39 41  1  0  0  0  0
 41 84  1  0  0  0  0
 42 85  1  0  0  0  0
M  END
