BACE_14.smi:1
 OpenBabel09281823033D
Structure written by MMmdl.
 85 89  0  0  1  0  0  0  0  0999 V2000
   17.5872   43.9456  -12.7107 C   0  0  0  0  0  0  0  0  0  0  0  0
   16.9373   44.3244  -11.3680 C   0  0  0  0  0  0  0  0  0  0  0  0
   16.3352   45.7403  -11.4020 C   0  0  0  0  0  0  0  0  0  0  0  0
   15.9218   43.2801  -10.9073 C   0  0  0  0  0  0  0  0  0  0  0  0
   14.5549   43.3967  -11.2454 C   0  0  0  0  0  0  0  0  0  0  0  0
   13.6323   42.4249  -10.8150 C   0  0  0  0  0  0  0  0  0  0  0  0
   14.0669   41.3311  -10.0430 C   0  0  0  0  0  0  0  0  0  0  0  0
   15.4279   41.1970   -9.6901 C   0  0  0  0  0  0  0  0  0  0  0  0
   16.3460   42.1770  -10.1317 C   0  0  0  0  0  0  0  0  0  0  0  0
   15.9079   40.0152   -8.8597 C   0  0  0  0  0  0  0  0  0  0  0  0
   16.5158   40.3104   -7.5093 C   0  0  0  0  0  0  0  0  0  0  0  0
   15.1425   39.6891   -7.5996 C   0  0  0  0  0  0  0  0  0  0  0  0
   16.4667   38.8917   -9.6274 N   0  0  0  0  0  0  0  0  0  0  0  0
   17.8373   39.0756  -10.1107 C   0  0  0  0  0  0  0  0  0  0  0  0
   18.7887   39.4818   -8.9615 C   0  0  2  0  0  0  0  0  0  0  0  0
   19.8247   40.5908   -9.3045 C   0  0  2  0  0  0  0  0  0  0  0  0
   20.9841   40.0376  -10.1785 C   0  0  0  0  0  0  0  0  0  0  0  0
   22.0121   41.0851  -10.5864 C   0  0  0  0  0  0  0  0  0  0  0  0
   21.7307   41.9753  -11.6421 C   0  0  0  0  0  0  0  0  0  0  0  0
   22.6776   42.9475  -12.0135 C   0  0  0  0  0  0  0  0  0  0  0  0
   23.9076   43.0378  -11.3334 C   0  0  0  0  0  0  0  0  0  0  0  0
   24.2036   42.1520  -10.2683 C   0  0  0  0  0  0  0  0  0  0  0  0
   23.2499   41.1753   -9.9129 C   0  0  0  0  0  0  0  0  0  0  0  0
   25.3768   42.1668   -9.5430 O   0  0  0  0  0  0  0  0  0  0  0  0
   26.2663   43.2796   -9.6495 C   0  0  0  0  0  0  0  0  0  0  0  0
   25.7045   44.5363   -8.9565 C   0  0  0  0  0  0  0  0  0  0  0  0
   25.3567   44.2990   -7.4791 C   0  0  0  0  0  0  0  0  0  0  0  0
   24.6215   45.4963   -6.8468 C   0  0  0  0  0  0  0  0  0  0  0  0
   23.9841   45.1546   -5.5780 N   0  0  0  0  0  0  0  0  0  0  0  0
   22.9138   44.2462   -5.5380 C   0  0  0  0  0  0  0  0  0  0  0  0
   22.1747   43.8952   -6.6913 C   0  0  0  0  0  0  0  0  0  0  0  0
   21.1626   42.9158   -6.6327 C   0  0  0  0  0  0  0  0  0  0  0  0
   20.8455   42.3159   -5.3941 C   0  0  0  0  0  0  0  0  0  0  0  0
   21.5509   42.6876   -4.2332 C   0  0  0  0  0  0  0  0  0  0  0  0
   22.5830   43.6439   -4.3068 C   0  0  0  0  0  0  0  0  0  0  0  0
   21.2224   42.0692   -2.9486 C   0  0  0  0  0  0  0  0  0  0  0  0
   21.0800   42.7055   -1.9045 O   0  0  0  0  0  0  0  0  0  0  0  0
   21.0519   40.5503   -2.8995 C   0  0  0  0  0  0  0  0  0  0  0  0
   20.4435   42.5325   -7.8892 C   0  0  0  0  0  0  0  0  0  0  0  0
   20.0885   43.3817   -8.6901 O   0  0  0  0  0  0  0  0  0  0  0  0
   20.3649   41.2125   -8.0879 N   0  0  0  0  0  0  0  0  0  0  0  0
   19.4951   38.3396   -8.5157 O   0  0  0  0  0  0  0  0  0  0  0  0
   18.1983   39.8201   -8.1084 H   0  0  0  0  0  0  0  0  0  0  0  0
   19.3149   41.3376   -9.9162 H   0  0  0  0  0  0  0  0  0  0  0  0
   18.3577   44.6653  -12.9894 H   0  0  0  0  0  0  0  0  0  0  0  0
   16.8607   43.9145  -13.5231 H   0  0  0  0  0  0  0  0  0  0  0  0
   18.0642   42.9666  -12.6532 H   0  0  0  0  0  0  0  0  0  0  0  0
   17.7412   44.3479  -10.6311 H   0  0  0  0  0  0  0  0  0  0  0  0
   17.0910   46.4809  -11.6655 H   0  0  0  0  0  0  0  0  0  0  0  0
   15.9343   46.0196  -10.4270 H   0  0  0  0  0  0  0  0  0  0  0  0
   15.5280   45.8248  -12.1302 H   0  0  0  0  0  0  0  0  0  0  0  0
   14.2032   44.2290  -11.8372 H   0  0  0  0  0  0  0  0  0  0  0  0
   12.5890   42.5181  -11.0786 H   0  0  0  0  0  0  0  0  0  0  0  0
   13.3463   40.5919   -9.7246 H   0  0  0  0  0  0  0  0  0  0  0  0
   17.3891   42.0763   -9.8681 H   0  0  0  0  0  0  0  0  0  0  0  0
   17.3362   39.6752   -7.1753 H   0  0  0  0  0  0  0  0  0  0  0  0
   16.5784   41.3540   -7.2012 H   0  0  0  0  0  0  0  0  0  0  0  0
   14.2869   40.3174   -7.3518 H   0  0  0  0  0  0  0  0  0  0  0  0
   15.0447   38.6386   -7.3260 H   0  0  0  0  0  0  0  0  0  0  0  0
   16.3834   38.0289   -9.0993 H   0  0  0  0  0  0  0  0  0  0  0  0
   17.8362   39.8557  -10.8719 H   0  0  0  0  0  0  0  0  0  0  0  0
   18.2011   38.1700  -10.5979 H   0  0  0  0  0  0  0  0  0  0  0  0
   21.4893   39.2301   -9.6486 H   0  0  0  0  0  0  0  0  0  0  0  0
   20.5721   39.5851  -11.0804 H   0  0  0  0  0  0  0  0  0  0  0  0
   20.7893   41.9188  -12.1684 H   0  0  0  0  0  0  0  0  0  0  0  0
   22.4600   43.6286  -12.8229 H   0  0  0  0  0  0  0  0  0  0  0  0
   24.6060   43.7976  -11.6514 H   0  0  0  0  0  0  0  0  0  0  0  0
   23.4701   40.4967   -9.1022 H   0  0  0  0  0  0  0  0  0  0  0  0
   27.1980   42.9950   -9.1605 H   0  0  0  0  0  0  0  0  0  0  0  0
   26.5356   43.4792  -10.6866 H   0  0  0  0  0  0  0  0  0  0  0  0
   26.4258   45.3502   -9.0307 H   0  0  0  0  0  0  0  0  0  0  0  0
   24.8164   44.8758   -9.4896 H   0  0  0  0  0  0  0  0  0  0  0  0
   24.7569   43.3946   -7.3770 H   0  0  0  0  0  0  0  0  0  0  0  0
   26.2846   44.1013   -6.9423 H   0  0  0  0  0  0  0  0  0  0  0  0
   25.3307   46.3062   -6.6760 H   0  0  0  0  0  0  0  0  0  0  0  0
   23.8760   45.9018   -7.5308 H   0  0  0  0  0  0  0  0  0  0  0  0
   24.5108   45.3163   -4.7315 H   0  0  0  0  0  0  0  0  0  0  0  0
   22.3946   44.3372   -7.6519 H   0  0  0  0  0  0  0  0  0  0  0  0
   20.0605   41.5771   -5.3267 H   0  0  0  0  0  0  0  0  0  0  0  0
   23.1246   43.8991   -3.4080 H   0  0  0  0  0  0  0  0  0  0  0  0
   21.9595   40.0486   -3.2360 H   0  0  0  0  0  0  0  0  0  0  0  0
   20.2187   40.2352   -3.5281 H   0  0  0  0  0  0  0  0  0  0  0  0
   20.8460   40.2242   -1.8796 H   0  0  0  0  0  0  0  0  0  0  0  0
   20.7472   40.6152   -7.3687 H   0  0  0  0  0  0  0  0  0  0  0  0
   19.8908   38.5386   -7.6810 H   0  0  0  0  0  0  0  0  0  0  0  0
  1  2  1  0  0  0  0
  1 45  1  0  0  0  0
  1 46  1  0  0  0  0
  1 47  1  0  0  0  0
  2  3  1  0  0  0  0
  2  4  1  0  0  0  0
  2 48  1  0  0  0  0
  3 49  1  0  0  0  0
  3 50  1  0  0  0  0
  3 51  1  0  0  0  0
  4  9  1  0  0  0  0
  4  5  2  0  0  0  0
  5  6  1  0  0  0  0
  5 52  1  0  0  0  0
  6  7  2  0  0  0  0
  6 53  1  0  0  0  0
  7  8  1  0  0  0  0
  7 54  1  0  0  0  0
  8  9  2  0  0  0  0
  8 10  1  0  0  0  0
  9 55  1  0  0  0  0
 10 12  1  0  0  0  0
 10 11  1  0  0  0  0
 10 13  1  0  0  0  0
 11 12  1  0  0  0  0
 11 56  1  0  0  0  0
 11 57  1  0  0  0  0
 12 58  1  0  0  0  0
 12 59  1  0  0  0  0
 13 14  1  0  0  0  0
 13 60  1  0  0  0  0
 14 15  1  0  0  0  0
 14 61  1  0  0  0  0
 14 62  1  0  0  0  0
 15 43  1  1  0  0  0
 15 16  1  0  0  0  0
 15 42  1  0  0  0  0
 16 44  1  6  0  0  0
 16 41  1  0  0  0  0
 16 17  1  0  0  0  0
 17 18  1  0  0  0  0
 17 63  1  0  0  0  0
 17 64  1  0  0  0  0
 18 23  1  0  0  0  0
 18 19  2  0  0  0  0
 19 20  1  0  0  0  0
 19 65  1  0  0  0  0
 20 21  2  0  0  0  0
 20 66  1  0  0  0  0
 21 22  1  0  0  0  0
 21 67  1  0  0  0  0
 22 23  2  0  0  0  0
 22 24  1  0  0  0  0
 23 68  1  0  0  0  0
 24 25  1  0  0  0  0
 25 26  1  0  0  0  0
 25 69  1  0  0  0  0
 25 70  1  0  0  0  0
 26 27  1  0  0  0  0
 26 71  1  0  0  0  0
 26 72  1  0  0  0  0
 27 28  1  0  0  0  0
 27 73  1  0  0  0  0
 27 74  1  0  0  0  0
 28 29  1  0  0  0  0
 28 75  1  0  0  0  0
 28 76  1  0  0  0  0
 29 30  1  0  0  0  0
 29 77  1  0  0  0  0
 30 35  1  0  0  0  0
 30 31  2  0  0  0  0
 31 32  1  0  0  0  0
 31 78  1  0  0  0  0
 32 33  2  0  0  0  0
 32 39  1  0  0  0  0
 33 34  1  0  0  0  0
 33 79  1  0  0  0  0
 34 35  2  0  0  0  0
 34 36  1  0  0  0  0
 35 80  1  0  0  0  0
 36 37  2  0  0  0  0
 36 38  1  0  0  0  0
 38 81  1  0  0  0  0
 38 82  1  0  0  0  0
 38 83  1  0  0  0  0
 39 40  2  0  0  0  0
 39 41  1  0  0  0  0
 41 84  1  0  0  0  0
 42 85  1  0  0  0  0
M  END
