BACE_6.smi:1
 OpenBabel09281823033D
Structure written by MMmdl.
 82 84  0  0  1  0  0  0  0  0999 V2000
   20.6350   51.1520   -8.0332 C   0  0  0  0  0  0  0  0  0  0  0  0
   21.6286   49.9833   -7.9526 C   0  0  0  0  0  0  0  0  0  0  0  0
   20.9289   48.6926   -7.8535 N   0  0  0  0  0  0  0  0  0  0  0  0
   20.6362   48.0793   -9.1658 C   0  0  0  0  0  0  0  0  0  0  0  0
   21.3811   46.7551   -9.4523 C   0  0  0  0  0  0  0  0  0  0  0  0
   21.2746   46.3131  -10.9228 C   0  0  0  0  0  0  0  0  0  0  0  0
   19.8492   45.9918  -11.4175 C   0  0  0  0  0  0  0  0  0  0  0  0
   19.3733   44.5505  -11.1530 C   0  0  0  0  0  0  0  0  0  0  0  0
   17.9394   44.2764  -11.6761 C   0  0  2  0  0  0  0  0  0  0  0  0
   17.3306   42.9669  -11.1189 C   0  0  0  0  0  0  0  0  0  0  0  0
   16.4705   43.1362   -9.8449 C   0  0  2  0  0  0  0  0  0  0  0  0
   17.3264   43.6140   -8.7609 N   0  0  0  0  0  0  0  0  0  0  0  0
   17.1869   44.7593   -8.0747 C   0  0  0  0  0  0  0  0  0  0  0  0
   16.2299   45.5279   -8.1970 O   0  0  0  0  0  0  0  0  0  0  0  0
   18.3769   45.1227   -7.2407 C   0  0  0  0  0  0  0  0  0  0  0  0
   19.1015   44.1397   -6.5272 C   0  0  0  0  0  0  0  0  0  0  0  0
   20.2424   44.4970   -5.7875 C   0  0  0  0  0  0  0  0  0  0  0  0
   20.7050   45.8250   -5.8071 C   0  0  0  0  0  0  0  0  0  0  0  0
   20.0134   46.8102   -6.5414 C   0  0  0  0  0  0  0  0  0  0  0  0
   18.8084   46.4662   -7.1954 C   0  0  0  0  0  0  0  0  0  0  0  0
   20.5878   48.1942   -6.6308 C   0  0  0  0  0  0  0  0  0  0  0  0
   20.8012   48.8041   -5.5820 O   0  0  0  0  0  0  0  0  0  0  0  0
   15.7854   41.8068   -9.4489 C   0  0  1  0  0  0  0  0  0  0  0  0
   15.0540   41.8517   -8.0885 C   0  0  0  0  0  0  0  0  0  0  0  0
   14.9977   40.5534   -7.4155 N   0  0  0  0  0  0  0  0  0  0  0  0
   16.2975   40.0805   -6.9477 C   0  0  0  0  0  0  0  0  0  0  0  0
   17.0039   39.1022   -7.8588 C   0  0  0  0  0  0  0  0  0  0  0  0
   16.2793   38.1465   -8.5946 C   0  0  0  0  0  0  0  0  0  0  0  0
   16.9623   37.2747   -9.4577 C   0  0  0  0  0  0  0  0  0  0  0  0
   18.3620   37.3550   -9.5816 C   0  0  0  0  0  0  0  0  0  0  0  0
   19.1045   38.2924   -8.8320 C   0  0  0  0  0  0  0  0  0  0  0  0
   18.4078   39.1686   -7.9723 C   0  0  0  0  0  0  0  0  0  0  0  0
   20.6211   38.3531   -8.9829 C   0  0  0  0  0  0  0  0  0  0  0  0
   21.3623   38.7206   -7.6845 C   0  0  0  0  0  0  0  0  0  0  0  0
   21.0171   39.2805  -10.1409 C   0  0  0  0  0  0  0  0  0  0  0  0
   14.7939   41.4873  -10.4086 O   0  0  0  0  0  0  0  0  0  0  0  0
   17.8947   44.2502  -13.2136 C   0  0  0  0  0  0  0  0  0  0  0  0
   17.3013   45.0992  -11.3536 H   0  0  0  0  0  0  0  0  0  0  0  0
   15.6900   43.8699  -10.0456 H   0  0  0  0  0  0  0  0  0  0  0  0
   16.5425   41.0279   -9.4708 H   0  0  0  0  0  0  0  0  0  0  0  0
   21.1571   52.0935   -8.1958 H   0  0  0  0  0  0  0  0  0  0  0  0
   20.0494   51.2361   -7.1184 H   0  0  0  0  0  0  0  0  0  0  0  0
   19.9408   51.0209   -8.8648 H   0  0  0  0  0  0  0  0  0  0  0  0
   22.2871   49.9906   -8.8212 H   0  0  0  0  0  0  0  0  0  0  0  0
   22.2994   50.1265   -7.1035 H   0  0  0  0  0  0  0  0  0  0  0  0
   19.5605   47.9554   -9.2661 H   0  0  0  0  0  0  0  0  0  0  0  0
   20.8817   48.7826   -9.9634 H   0  0  0  0  0  0  0  0  0  0  0  0
   22.4379   46.8843   -9.2118 H   0  0  0  0  0  0  0  0  0  0  0  0
   21.0264   45.9462   -8.8185 H   0  0  0  0  0  0  0  0  0  0  0  0
   21.6852   47.1111  -11.5440 H   0  0  0  0  0  0  0  0  0  0  0  0
   21.9227   45.4527  -11.0961 H   0  0  0  0  0  0  0  0  0  0  0  0
   19.1269   46.7010  -11.0186 H   0  0  0  0  0  0  0  0  0  0  0  0
   19.8470   46.1698  -12.4863 H   0  0  0  0  0  0  0  0  0  0  0  0
   20.0700   43.8440  -11.6046 H   0  0  0  0  0  0  0  0  0  0  0  0
   19.4308   44.3709  -10.0820 H   0  0  0  0  0  0  0  0  0  0  0  0
   16.6965   42.5156  -11.8814 H   0  0  0  0  0  0  0  0  0  0  0  0
   18.1204   42.2325  -10.9497 H   0  0  0  0  0  0  0  0  0  0  0  0
   18.1603   43.0699   -8.5828 H   0  0  0  0  0  0  0  0  0  0  0  0
   18.7741   43.1083   -6.5207 H   0  0  0  0  0  0  0  0  0  0  0  0
   20.7840   43.7434   -5.2325 H   0  0  0  0  0  0  0  0  0  0  0  0
   21.6117   46.0792   -5.2744 H   0  0  0  0  0  0  0  0  0  0  0  0
   18.2453   47.2195   -7.7260 H   0  0  0  0  0  0  0  0  0  0  0  0
   15.5432   42.5483   -7.4110 H   0  0  0  0  0  0  0  0  0  0  0  0
   14.0559   42.2587   -8.2233 H   0  0  0  0  0  0  0  0  0  0  0  0
   14.3929   40.6414   -6.5969 H   0  0  0  0  0  0  0  0  0  0  0  0
   16.9603   40.9343   -6.8400 H   0  0  0  0  0  0  0  0  0  0  0  0
   16.1838   39.6066   -5.9736 H   0  0  0  0  0  0  0  0  0  0  0  0
   15.2036   38.0860   -8.4973 H   0  0  0  0  0  0  0  0  0  0  0  0
   16.4107   36.5504  -10.0344 H   0  0  0  0  0  0  0  0  0  0  0  0
   18.8595   36.6906  -10.2675 H   0  0  0  0  0  0  0  0  0  0  0  0
   18.9396   39.9090   -7.3921 H   0  0  0  0  0  0  0  0  0  0  0  0
   20.9509   37.3481   -9.2403 H   0  0  0  0  0  0  0  0  0  0  0  0
   21.0798   38.0589   -6.8665 H   0  0  0  0  0  0  0  0  0  0  0  0
   21.1629   39.7444   -7.3734 H   0  0  0  0  0  0  0  0  0  0  0  0
   22.4395   38.6351   -7.8237 H   0  0  0  0  0  0  0  0  0  0  0  0
   20.5652   38.9550  -11.0778 H   0  0  0  0  0  0  0  0  0  0  0  0
   22.0982   39.2923  -10.2843 H   0  0  0  0  0  0  0  0  0  0  0  0
   20.6930   40.3039   -9.9547 H   0  0  0  0  0  0  0  0  0  0  0  0
   14.2828   40.7760  -10.0422 H   0  0  0  0  0  0  0  0  0  0  0  0
   18.4629   43.4109  -13.6150 H   0  0  0  0  0  0  0  0  0  0  0  0
   18.2916   45.1700  -13.6406 H   0  0  0  0  0  0  0  0  0  0  0  0
   16.8690   44.1505  -13.5708 H   0  0  0  0  0  0  0  0  0  0  0  0
  1  2  1  0  0  0  0
  1 41  1  0  0  0  0
  1 42  1  0  0  0  0
  1 43  1  0  0  0  0
  2  3  1  0  0  0  0
  2 44  1  0  0  0  0
  2 45  1  0  0  0  0
  3 21  1  0  0  0  0
  3  4  1  0  0  0  0
  4  5  1  0  0  0  0
  4 46  1  0  0  0  0
  4 47  1  0  0  0  0
  5  6  1  0  0  0  0
  5 48  1  0  0  0  0
  5 49  1  0  0  0  0
  6  7  1  0  0  0  0
  6 50  1  0  0  0  0
  6 51  1  0  0  0  0
  7  8  1  0  0  0  0
  7 52  1  0  0  0  0
  7 53  1  0  0  0  0
  8  9  1  0  0  0  0
  8 54  1  0  0  0  0
  8 55  1  0  0  0  0
  9 38  1  1  0  0  0
  9 10  1  0  0  0  0
  9 37  1  0  0  0  0
 10 11  1  0  0  0  0
 10 56  1  0  0  0  0
 10 57  1  0  0  0  0
 11 39  1  6  0  0  0
 11 12  1  0  0  0  0
 11 23  1  0  0  0  0
 12 13  1  0  0  0  0
 12 58  1  0  0  0  0
 13 14  2  0  0  0  0
 13 15  1  0  0  0  0
 15 20  1  0  0  0  0
 15 16  2  0  0  0  0
 16 17  1  0  0  0  0
 16 59  1  0  0  0  0
 17 18  2  0  0  0  0
 17 60  1  0  0  0  0
 18 19  1  0  0  0  0
 18 61  1  0  0  0  0
 19 20  2  0  0  0  0
 19 21  1  0  0  0  0
 20 62  1  0  0  0  0
 21 22  2  0  0  0  0
 23 40  1  1  0  0  0
 23 24  1  0  0  0  0
 23 36  1  0  0  0  0
 24 25  1  0  0  0  0
 24 63  1  0  0  0  0
 24 64  1  0  0  0  0
 25 26  1  0  0  0  0
 25 65  1  0  0  0  0
 26 27  1  0  0  0  0
 26 66  1  0  0  0  0
 26 67  1  0  0  0  0
 27 32  1  0  0  0  0
 27 28  2  0  0  0  0
 28 29  1  0  0  0  0
 28 68  1  0  0  0  0
 29 30  2  0  0  0  0
 29 69  1  0  0  0  0
 30 31  1  0  0  0  0
 30 70  1  0  0  0  0
 31 32  2  0  0  0  0
 31 33  1  0  0  0  0
 32 71  1  0  0  0  0
 33 34  1  0  0  0  0
 33 35  1  0  0  0  0
 33 72  1  0  0  0  0
 34 73  1  0  0  0  0
 34 74  1  0  0  0  0
 34 75  1  0  0  0  0
 35 76  1  0  0  0  0
 35 77  1  0  0  0  0
 35 78  1  0  0  0  0
 36 79  1  0  0  0  0
 37 80  1  0  0  0  0
 37 81  1  0  0  0  0
 37 82  1  0  0  0  0
M  END
