BACE_20.smi:1
 OpenBabel09281823033D
Structure written by MMmdl.
 78 79  0  0  1  0  0  0  0  0999 V2000
   24.8601   51.7612   -0.7306 C   0  0  0  0  0  0  0  0  0  0  0  0
   25.6927   50.6026   -0.1732 C   0  0  0  0  0  0  0  0  0  0  0  0
   25.5952   49.3284   -1.0198 C   0  0  0  0  0  0  0  0  0  0  0  0
   26.2405   49.4666   -2.4081 C   0  0  0  0  0  0  0  0  0  0  0  0
   26.0061   48.2949   -3.2405 N   0  0  0  0  0  0  0  0  0  0  0  0
   24.7896   48.1069   -3.9136 C   0  0  0  0  0  0  0  0  0  0  0  0
   24.6202   46.9502   -4.6926 C   0  0  0  0  0  0  0  0  0  0  0  0
   23.3897   46.7332   -5.3451 C   0  0  0  0  0  0  0  0  0  0  0  0
   22.3830   47.7171   -5.2219 C   0  0  0  0  0  0  0  0  0  0  0  0
   22.6451   48.8561   -4.4370 C   0  0  0  0  0  0  0  0  0  0  0  0
   23.8164   49.0355   -3.7842 N   0  0  0  0  0  0  0  0  0  0  0  0
   21.6809   49.8398   -4.3407 O   0  0  0  0  0  0  0  0  0  0  0  0
   21.8718   50.8739   -3.3726 C   0  0  0  0  0  0  0  0  0  0  0  0
   23.1913   45.4982   -6.1734 C   0  0  0  0  0  0  0  0  0  0  0  0
   24.0803   45.0840   -6.9183 O   0  0  0  0  0  0  0  0  0  0  0  0
   22.0170   44.8750   -5.9985 N   0  0  0  0  0  0  0  0  0  0  0  0
   21.6156   43.6290   -6.6491 C   0  0  1  0  0  0  0  0  0  0  0  0
   22.3545   42.4187   -6.0237 C   0  0  0  0  0  0  0  0  0  0  0  0
   22.0371   41.1061   -6.7160 C   0  0  0  0  0  0  0  0  0  0  0  0
   21.0814   40.2199   -6.1714 C   0  0  0  0  0  0  0  0  0  0  0  0
   20.7602   39.0267   -6.8439 C   0  0  0  0  0  0  0  0  0  0  0  0
   21.3987   38.7096   -8.0604 C   0  0  0  0  0  0  0  0  0  0  0  0
   22.3661   39.5832   -8.5953 C   0  0  0  0  0  0  0  0  0  0  0  0
   22.6865   40.7755   -7.9248 C   0  0  0  0  0  0  0  0  0  0  0  0
   20.0720   43.4931   -6.6349 C   0  0  2  0  0  0  0  0  0  0  0  0
   19.3210   44.6809   -7.2910 C   0  0  0  0  0  0  0  0  0  0  0  0
   17.7868   44.5116   -7.4492 C   0  0  1  0  0  0  0  0  0  0  0  0
   17.1483   45.7556   -8.0923 C   0  0  0  0  0  0  0  0  0  0  0  0
   17.4234   43.2546   -8.2528 C   0  0  0  0  0  0  0  0  0  0  0  0
   17.8601   43.1072   -9.3925 O   0  0  0  0  0  0  0  0  0  0  0  0
   16.6524   42.3464   -7.6400 N   0  0  0  0  0  0  0  0  0  0  0  0
   16.3340   41.0341   -8.1743 C   0  0  0  0  0  0  0  0  0  0  0  0
   15.3865   40.2852   -7.2253 C   0  0  0  0  0  0  0  0  0  0  0  0
   15.0635   38.8517   -7.6674 C   0  0  0  0  0  0  0  0  0  0  0  0
   14.2682   38.7824   -8.9783 C   0  0  0  0  0  0  0  0  0  0  0  0
   19.6601   43.3508   -5.2936 O   0  0  0  0  0  0  0  0  0  0  0  0
   21.9126   43.6963   -7.6970 H   0  0  0  0  0  0  0  0  0  0  0  0
   19.8130   42.5773   -7.1610 H   0  0  0  0  0  0  0  0  0  0  0  0
   17.3495   44.4104   -6.4584 H   0  0  0  0  0  0  0  0  0  0  0  0
   24.9035   52.6168   -0.0569 H   0  0  0  0  0  0  0  0  0  0  0  0
   23.8138   51.4780   -0.8448 H   0  0  0  0  0  0  0  0  0  0  0  0
   25.2264   52.0975   -1.7013 H   0  0  0  0  0  0  0  0  0  0  0  0
   25.3518   50.3828    0.8396 H   0  0  0  0  0  0  0  0  0  0  0  0
   26.7350   50.9091   -0.0776 H   0  0  0  0  0  0  0  0  0  0  0  0
   24.5471   49.0412   -1.1082 H   0  0  0  0  0  0  0  0  0  0  0  0
   26.0858   48.5199   -0.4801 H   0  0  0  0  0  0  0  0  0  0  0  0
   27.3165   49.6015   -2.3010 H   0  0  0  0  0  0  0  0  0  0  0  0
   25.8730   50.3497   -2.9299 H   0  0  0  0  0  0  0  0  0  0  0  0
   26.7579   47.6351   -3.3790 H   0  0  0  0  0  0  0  0  0  0  0  0
   25.4138   46.2200   -4.7763 H   0  0  0  0  0  0  0  0  0  0  0  0
   21.4353   47.6099   -5.7266 H   0  0  0  0  0  0  0  0  0  0  0  0
   21.1384   51.6635   -3.5257 H   0  0  0  0  0  0  0  0  0  0  0  0
   22.8511   51.3499   -3.4401 H   0  0  0  0  0  0  0  0  0  0  0  0
   21.7449   50.4909   -2.3583 H   0  0  0  0  0  0  0  0  0  0  0  0
   21.3656   45.2517   -5.3239 H   0  0  0  0  0  0  0  0  0  0  0  0
   23.4327   42.5719   -6.0786 H   0  0  0  0  0  0  0  0  0  0  0  0
   22.1189   42.3354   -4.9610 H   0  0  0  0  0  0  0  0  0  0  0  0
   20.5749   40.4657   -5.2467 H   0  0  0  0  0  0  0  0  0  0  0  0
   20.0151   38.3573   -6.4382 H   0  0  0  0  0  0  0  0  0  0  0  0
   21.1473   37.8001   -8.5824 H   0  0  0  0  0  0  0  0  0  0  0  0
   22.8595   39.3376   -9.5248 H   0  0  0  0  0  0  0  0  0  0  0  0
   23.4240   41.4442   -8.3462 H   0  0  0  0  0  0  0  0  0  0  0  0
   19.7549   44.8598   -8.2745 H   0  0  0  0  0  0  0  0  0  0  0  0
   19.5104   45.5870   -6.7160 H   0  0  0  0  0  0  0  0  0  0  0  0
   17.2830   46.6333   -7.4598 H   0  0  0  0  0  0  0  0  0  0  0  0
   16.0748   45.6179   -8.2340 H   0  0  0  0  0  0  0  0  0  0  0  0
   17.5921   45.9723   -9.0655 H   0  0  0  0  0  0  0  0  0  0  0  0
   16.2924   42.5566   -6.7141 H   0  0  0  0  0  0  0  0  0  0  0  0
   17.2571   40.4644   -8.3085 H   0  0  0  0  0  0  0  0  0  0  0  0
   15.8774   41.1505   -9.1590 H   0  0  0  0  0  0  0  0  0  0  0  0
   14.4603   40.8472   -7.1152 H   0  0  0  0  0  0  0  0  0  0  0  0
   15.8272   40.2428   -6.2279 H   0  0  0  0  0  0  0  0  0  0  0  0
   14.4878   38.3612   -6.8786 H   0  0  0  0  0  0  0  0  0  0  0  0
   15.9863   38.2782   -7.7636 H   0  0  0  0  0  0  0  0  0  0  0  0
   14.0599   37.7501   -9.2410 H   0  0  0  0  0  0  0  0  0  0  0  0
   14.8133   39.2197   -9.8137 H   0  0  0  0  0  0  0  0  0  0  0  0
   13.3116   39.2993   -8.8889 H   0  0  0  0  0  0  0  0  0  0  0  0
   19.0405   42.6245   -5.2400 H   0  0  0  0  0  0  0  0  0  0  0  0
  1  2  1  0  0  0  0
  1 40  1  0  0  0  0
  1 41  1  0  0  0  0
  1 42  1  0  0  0  0
  2  3  1  0  0  0  0
  2 43  1  0  0  0  0
  2 44  1  0  0  0  0
  3  4  1  0  0  0  0
  3 45  1  0  0  0  0
  3 46  1  0  0  0  0
  4  5  1  0  0  0  0
  4 47  1  0  0  0  0
  4 48  1  0  0  0  0
  5  6  1  0  0  0  0
  5 49  1  0  0  0  0
  6 11  1  0  0  0  0
  6  7  2  0  0  0  0
  7  8  1  0  0  0  0
  7 50  1  0  0  0  0
  8  9  2  0  0  0  0
  8 14  1  0  0  0  0
  9 10  1  0  0  0  0
  9 51  1  0  0  0  0
 10 11  2  0  0  0  0
 10 12  1  0  0  0  0
 12 13  1  0  0  0  0
 13 52  1  0  0  0  0
 13 53  1  0  0  0  0
 13 54  1  0  0  0  0
 14 15  2  0  0  0  0
 14 16  1  0  0  0  0
 16 17  1  0  0  0  0
 16 55  1  0  0  0  0
 17 37  1  6  0  0  0
 17 18  1  0  0  0  0
 17 25  1  0  0  0  0
 18 19  1  0  0  0  0
 18 56  1  0  0  0  0
 18 57  1  0  0  0  0
 19 24  1  0  0  0  0
 19 20  2  0  0  0  0
 20 21  1  0  0  0  0
 20 58  1  0  0  0  0
 21 22  2  0  0  0  0
 21 59  1  0  0  0  0
 22 23  1  0  0  0  0
 22 60  1  0  0  0  0
 23 24  2  0  0  0  0
 23 61  1  0  0  0  0
 24 62  1  0  0  0  0
 25 38  1  6  0  0  0
 25 26  1  0  0  0  0
 25 36  1  0  0  0  0
 26 27  1  0  0  0  0
 26 63  1  0  0  0  0
 26 64  1  0  0  0  0
 27 39  1  1  0  0  0
 27 28  1  0  0  0  0
 27 29  1  0  0  0  0
 28 65  1  0  0  0  0
 28 66  1  0  0  0  0
 28 67  1  0  0  0  0
 29 30  2  0  0  0  0
 29 31  1  0  0  0  0
 31 32  1  0  0  0  0
 31 68  1  0  0  0  0
 32 33  1  0  0  0  0
 32 69  1  0  0  0  0
 32 70  1  0  0  0  0
 33 34  1  0  0  0  0
 33 71  1  0  0  0  0
 33 72  1  0  0  0  0
 34 35  1  0  0  0  0
 34 73  1  0  0  0  0
 34 74  1  0  0  0  0
 35 75  1  0  0  0  0
 35 76  1  0  0  0  0
 35 77  1  0  0  0  0
 36 78  1  0  0  0  0
M  END
