BACE_16.smi:1
 OpenBabel09281823033D
Structure written by MMmdl.
 84 87  0  0  1  0  0  0  0  0999 V2000
   27.2178   49.9097   -0.9171 C   0  0  0  0  0  0  0  0  0  0  0  0
   25.7663   50.1265   -0.4431 C   0  0  0  0  0  0  0  0  0  0  0  0
   25.4289   49.1957    0.7301 C   0  0  0  0  0  0  0  0  0  0  0  0
   24.7437   49.9908   -1.5689 C   0  0  0  0  0  0  0  0  0  0  0  0
   23.6629   50.8960   -1.6416 C   0  0  0  0  0  0  0  0  0  0  0  0
   22.7052   50.7840   -2.6686 C   0  0  0  0  0  0  0  0  0  0  0  0
   22.8311   49.7737   -3.6429 C   0  0  0  0  0  0  0  0  0  0  0  0
   23.9079   48.8670   -3.5858 C   0  0  0  0  0  0  0  0  0  0  0  0
   24.8510   48.9669   -2.5401 C   0  0  0  0  0  0  0  0  0  0  0  0
   24.0410   47.7725   -4.6263 C   0  0  0  0  0  0  0  0  0  0  0  0
   23.2601   46.5959   -4.2605 N   0  0  0  0  0  0  0  0  0  0  0  0
   23.5576   45.4181   -5.0737 C   0  0  0  0  0  0  0  0  0  0  0  0
   22.5760   45.2773   -6.2608 C   0  0  2  0  0  0  0  0  0  0  0  0
   21.5858   44.0909   -6.0922 C   0  0  2  0  0  0  0  0  0  0  0  0
   22.2330   42.6737   -6.1019 C   0  0  0  0  0  0  0  0  0  0  0  0
   22.4074   42.0361   -7.4789 C   0  0  0  0  0  0  0  0  0  0  0  0
   23.6478   42.1025   -8.1409 C   0  0  0  0  0  0  0  0  0  0  0  0
   23.7931   41.5483   -9.4259 C   0  0  0  0  0  0  0  0  0  0  0  0
   22.7045   40.9158  -10.0512 C   0  0  0  0  0  0  0  0  0  0  0  0
   21.4583   40.8021   -9.3871 C   0  0  0  0  0  0  0  0  0  0  0  0
   21.3291   41.3613   -8.0971 C   0  0  0  0  0  0  0  0  0  0  0  0
   20.3443   40.1730   -9.9049 O   0  0  0  0  0  0  0  0  0  0  0  0
   20.3058   39.8335  -11.2908 C   0  0  0  0  0  0  0  0  0  0  0  0
   19.9706   41.0712  -12.1411 C   0  0  0  0  0  0  0  0  0  0  0  0
   18.5081   41.5143  -11.9727 C   0  0  0  0  0  0  0  0  0  0  0  0
   18.2152   42.8883  -12.6034 C   0  0  0  0  0  0  0  0  0  0  0  0
   18.7562   43.9424  -11.8093 O   0  0  0  0  0  0  0  0  0  0  0  0
   18.1570   44.1773  -10.5890 C   0  0  0  0  0  0  0  0  0  0  0  0
   18.9954   44.4392   -9.4896 C   0  0  0  0  0  0  0  0  0  0  0  0
   18.4589   44.6361   -8.1930 C   0  0  0  0  0  0  0  0  0  0  0  0
   17.0577   44.6209   -8.0221 C   0  0  0  0  0  0  0  0  0  0  0  0
   16.2048   44.3810   -9.1175 C   0  0  0  0  0  0  0  0  0  0  0  0
   16.7568   44.1670  -10.3971 C   0  0  0  0  0  0  0  0  0  0  0  0
   14.8441   44.3796   -8.9298 O   0  0  0  0  0  0  0  0  0  0  0  0
   14.2325   43.0938   -8.9870 C   0  0  0  0  0  0  0  0  0  0  0  0
   13.3560   42.9743  -10.2367 C   0  0  0  0  0  0  0  0  0  0  0  0
   13.8387   42.9464  -11.3693 O   0  0  0  0  0  0  0  0  0  0  0  0
   11.8490   42.8691  -10.0408 C   0  0  0  0  0  0  0  0  0  0  0  0
   19.3664   44.8455   -7.0120 C   0  0  0  0  0  0  0  0  0  0  0  0
   19.0293   45.5244   -6.0406 O   0  0  0  0  0  0  0  0  0  0  0  0
   20.5243   44.1753   -7.0896 N   0  0  0  0  0  0  0  0  0  0  0  0
   23.3212   45.1127   -7.4485 O   0  0  0  0  0  0  0  0  0  0  0  0
   22.0143   46.2059   -6.3813 H   0  0  0  0  0  0  0  0  0  0  0  0
   21.1273   44.2188   -5.1080 H   0  0  0  0  0  0  0  0  0  0  0  0
   27.4587   50.5506   -1.7636 H   0  0  0  0  0  0  0  0  0  0  0  0
   27.4021   48.8771   -1.2134 H   0  0  0  0  0  0  0  0  0  0  0  0
   27.9199   50.1455   -0.1170 H   0  0  0  0  0  0  0  0  0  0  0  0
   25.7096   51.1521   -0.0746 H   0  0  0  0  0  0  0  0  0  0  0  0
   24.4229   49.3812    1.1018 H   0  0  0  0  0  0  0  0  0  0  0  0
   26.1170   49.3494    1.5618 H   0  0  0  0  0  0  0  0  0  0  0  0
   25.4893   48.1489    0.4325 H   0  0  0  0  0  0  0  0  0  0  0  0
   23.5619   51.6778   -0.9051 H   0  0  0  0  0  0  0  0  0  0  0  0
   21.8747   51.4717   -2.7101 H   0  0  0  0  0  0  0  0  0  0  0  0
   22.0959   49.6946   -4.4285 H   0  0  0  0  0  0  0  0  0  0  0  0
   25.6630   48.2570   -2.5005 H   0  0  0  0  0  0  0  0  0  0  0  0
   23.7316   48.1492   -5.6021 H   0  0  0  0  0  0  0  0  0  0  0  0
   25.0992   47.5148   -4.7099 H   0  0  0  0  0  0  0  0  0  0  0  0
   22.2888   46.8270   -4.4402 H   0  0  0  0  0  0  0  0  0  0  0  0
   24.5964   45.4351   -5.4104 H   0  0  0  0  0  0  0  0  0  0  0  0
   23.4824   44.5380   -4.4382 H   0  0  0  0  0  0  0  0  0  0  0  0
   23.1866   42.6670   -5.5756 H   0  0  0  0  0  0  0  0  0  0  0  0
   21.5921   42.0043   -5.5250 H   0  0  0  0  0  0  0  0  0  0  0  0
   24.5007   42.5736   -7.6712 H   0  0  0  0  0  0  0  0  0  0  0  0
   24.7448   41.6042   -9.9345 H   0  0  0  0  0  0  0  0  0  0  0  0
   22.8630   40.5126  -11.0405 H   0  0  0  0  0  0  0  0  0  0  0  0
   20.3808   41.2861   -7.5858 H   0  0  0  0  0  0  0  0  0  0  0  0
   21.2219   39.3463  -11.6250 H   0  0  0  0  0  0  0  0  0  0  0  0
   19.5269   39.0829  -11.4279 H   0  0  0  0  0  0  0  0  0  0  0  0
   20.6424   41.8902  -11.8861 H   0  0  0  0  0  0  0  0  0  0  0  0
   20.1537   40.8433  -13.1917 H   0  0  0  0  0  0  0  0  0  0  0  0
   17.8641   40.7639  -12.4299 H   0  0  0  0  0  0  0  0  0  0  0  0
   18.2358   41.5193  -10.9172 H   0  0  0  0  0  0  0  0  0  0  0  0
   18.6666   42.9355  -13.5940 H   0  0  0  0  0  0  0  0  0  0  0  0
   17.1479   43.0167  -12.7740 H   0  0  0  0  0  0  0  0  0  0  0  0
   20.0644   44.4538   -9.6513 H   0  0  0  0  0  0  0  0  0  0  0  0
   16.6296   44.7634   -7.0414 H   0  0  0  0  0  0  0  0  0  0  0  0
   16.0911   44.0219  -11.2301 H   0  0  0  0  0  0  0  0  0  0  0  0
   14.9728   42.2935   -8.9798 H   0  0  0  0  0  0  0  0  0  0  0  0
   13.6172   42.9678   -8.0965 H   0  0  0  0  0  0  0  0  0  0  0  0
   11.5480   43.3240   -9.0970 H   0  0  0  0  0  0  0  0  0  0  0  0
   11.5433   41.8207  -10.0387 H   0  0  0  0  0  0  0  0  0  0  0  0
   11.3289   43.3768  -10.8520 H   0  0  0  0  0  0  0  0  0  0  0  0
   20.6741   43.6227   -7.9224 H   0  0  0  0  0  0  0  0  0  0  0  0
   23.5959   44.2107   -7.5087 H   0  0  0  0  0  0  0  0  0  0  0  0
  1  2  1  0  0  0  0
  1 45  1  0  0  0  0
  1 46  1  0  0  0  0
  1 47  1  0  0  0  0
  2  3  1  0  0  0  0
  2  4  1  0  0  0  0
  2 48  1  0  0  0  0
  3 49  1  0  0  0  0
  3 50  1  0  0  0  0
  3 51  1  0  0  0  0
  4  9  1  0  0  0  0
  4  5  2  0  0  0  0
  5  6  1  0  0  0  0
  5 52  1  0  0  0  0
  6  7  2  0  0  0  0
  6 53  1  0  0  0  0
  7  8  1  0  0  0  0
  7 54  1  0  0  0  0
  8  9  2  0  0  0  0
  8 10  1  0  0  0  0
  9 55  1  0  0  0  0
 10 11  1  0  0  0  0
 10 56  1  0  0  0  0
 10 57  1  0  0  0  0
 11 12  1  0  0  0  0
 11 58  1  0  0  0  0
 12 13  1  0  0  0  0
 12 59  1  0  0  0  0
 12 60  1  0  0  0  0
 13 43  1  6  0  0  0
 13 14  1  0  0  0  0
 13 42  1  0  0  0  0
 14 44  1  1  0  0  0
 14 41  1  0  0  0  0
 14 15  1  0  0  0  0
 15 16  1  0  0  0  0
 15 61  1  0  0  0  0
 15 62  1  0  0  0  0
 16 21  1  0  0  0  0
 16 17  2  0  0  0  0
 17 18  1  0  0  0  0
 17 63  1  0  0  0  0
 18 19  2  0  0  0  0
 18 64  1  0  0  0  0
 19 20  1  0  0  0  0
 19 65  1  0  0  0  0
 20 21  2  0  0  0  0
 20 22  1  0  0  0  0
 21 66  1  0  0  0  0
 22 23  1  0  0  0  0
 23 24  1  0  0  0  0
 23 67  1  0  0  0  0
 23 68  1  0  0  0  0
 24 25  1  0  0  0  0
 24 69  1  0  0  0  0
 24 70  1  0  0  0  0
 25 26  1  0  0  0  0
 25 71  1  0  0  0  0
 25 72  1  0  0  0  0
 26 27  1  0  0  0  0
 26 73  1  0  0  0  0
 26 74  1  0  0  0  0
 27 28  1  0  0  0  0
 28 33  1  0  0  0  0
 28 29  2  0  0  0  0
 29 30  1  0  0  0  0
 29 75  1  0  0  0  0
 30 31  2  0  0  0  0
 30 39  1  0  0  0  0
 31 32  1  0  0  0  0
 31 76  1  0  0  0  0
 32 33  2  0  0  0  0
 32 34  1  0  0  0  0
 33 77  1  0  0  0  0
 34 35  1  0  0  0  0
 35 36  1  0  0  0  0
 35 78  1  0  0  0  0
 35 79  1  0  0  0  0
 36 37  2  0  0  0  0
 36 38  1  0  0  0  0
 38 80  1  0  0  0  0
 38 81  1  0  0  0  0
 38 82  1  0  0  0  0
 39 40  2  0  0  0  0
 39 41  1  0  0  0  0
 41 83  1  0  0  0  0
 42 84  1  0  0  0  0
M  END
