BACE_20.smi:1
 OpenBabel09281823033D
Structure written by MMmdl.
 78 79  0  0  1  0  0  0  0  0999 V2000
   29.2997   47.7638  -15.7698 C   0  0  0  0  0  0  0  0  0  0  0  0
   29.6795   46.5476  -14.9168 C   0  0  0  0  0  0  0  0  0  0  0  0
   28.7216   46.2917  -13.7403 C   0  0  0  0  0  0  0  0  0  0  0  0
   27.3369   45.7940  -14.1881 C   0  0  0  0  0  0  0  0  0  0  0  0
   26.4627   45.4590  -13.0712 N   0  0  0  0  0  0  0  0  0  0  0  0
   26.5493   44.2254  -12.4096 C   0  0  0  0  0  0  0  0  0  0  0  0
   25.5802   43.9230  -11.4364 C   0  0  0  0  0  0  0  0  0  0  0  0
   25.6679   42.6908  -10.7588 C   0  0  0  0  0  0  0  0  0  0  0  0
   26.7270   41.8129  -11.0686 C   0  0  0  0  0  0  0  0  0  0  0  0
   27.6571   42.2037  -12.0468 C   0  0  0  0  0  0  0  0  0  0  0  0
   27.5577   43.3798  -12.7154 N   0  0  0  0  0  0  0  0  0  0  0  0
   28.7029   41.3560  -12.3536 O   0  0  0  0  0  0  0  0  0  0  0  0
   29.5457   41.7044  -13.4464 C   0  0  0  0  0  0  0  0  0  0  0  0
   24.7002   42.3646   -9.6726 C   0  0  0  0  0  0  0  0  0  0  0  0
   24.8230   42.9003   -8.5710 O   0  0  0  0  0  0  0  0  0  0  0  0
   23.7411   41.4736   -9.9841 N   0  0  0  0  0  0  0  0  0  0  0  0
   22.8309   40.8743   -9.0007 C   0  0  1  0  0  0  0  0  0  0  0  0
   21.9286   41.9328   -8.2902 C   0  0  0  0  0  0  0  0  0  0  0  0
   21.8548   41.7272   -6.7847 C   0  0  0  0  0  0  0  0  0  0  0  0
   22.6403   42.5246   -5.9247 C   0  0  0  0  0  0  0  0  0  0  0  0
   22.5955   42.3280   -4.5296 C   0  0  0  0  0  0  0  0  0  0  0  0
   21.7583   41.3346   -3.9882 C   0  0  0  0  0  0  0  0  0  0  0  0
   20.9587   40.5489   -4.8392 C   0  0  0  0  0  0  0  0  0  0  0  0
   21.0067   40.7423   -6.2345 C   0  0  0  0  0  0  0  0  0  0  0  0
   22.0972   39.6409   -9.6275 C   0  0  2  0  0  0  0  0  0  0  0  0
   20.6514   39.8256  -10.1490 C   0  0  0  0  0  0  0  0  0  0  0  0
   20.5118   40.7474  -11.3927 C   0  0  1  0  0  0  0  0  0  0  0  0
   21.0011   40.0448  -12.6746 C   0  0  0  0  0  0  0  0  0  0  0  0
   19.0930   41.3125  -11.6119 C   0  0  0  0  0  0  0  0  0  0  0  0
   18.9027   42.1503  -12.4961 O   0  0  0  0  0  0  0  0  0  0  0  0
   18.1057   40.8764  -10.8172 N   0  0  0  0  0  0  0  0  0  0  0  0
   16.7345   41.3656  -10.8430 C   0  0  0  0  0  0  0  0  0  0  0  0
   15.8486   40.5932   -9.8531 C   0  0  0  0  0  0  0  0  0  0  0  0
   15.6617   39.1165  -10.2320 C   0  0  0  0  0  0  0  0  0  0  0  0
   14.7253   38.3676   -9.2815 C   0  0  0  0  0  0  0  0  0  0  0  0
   22.0598   38.5966   -8.6816 O   0  0  0  0  0  0  0  0  0  0  0  0
   23.5249   40.4863   -8.2478 H   0  0  0  0  0  0  0  0  0  0  0  0
   22.7050   39.2491  -10.4394 H   0  0  0  0  0  0  0  0  0  0  0  0
   21.1360   41.6245  -11.2351 H   0  0  0  0  0  0  0  0  0  0  0  0
   30.0440   47.9366  -16.5483 H   0  0  0  0  0  0  0  0  0  0  0  0
   29.2427   48.6672  -15.1636 H   0  0  0  0  0  0  0  0  0  0  0  0
   28.3354   47.6283  -16.2602 H   0  0  0  0  0  0  0  0  0  0  0  0
   30.6829   46.7050  -14.5201 H   0  0  0  0  0  0  0  0  0  0  0  0
   29.7408   45.6565  -15.5437 H   0  0  0  0  0  0  0  0  0  0  0  0
   28.6213   47.1936  -13.1383 H   0  0  0  0  0  0  0  0  0  0  0  0
   29.1771   45.5444  -13.0900 H   0  0  0  0  0  0  0  0  0  0  0  0
   27.4431   44.9310  -14.8422 H   0  0  0  0  0  0  0  0  0  0  0  0
   26.8382   46.5640  -14.7793 H   0  0  0  0  0  0  0  0  0  0  0  0
   25.7103   46.0899  -12.8395 H   0  0  0  0  0  0  0  0  0  0  0  0
   24.7936   44.6214  -11.1986 H   0  0  0  0  0  0  0  0  0  0  0  0
   26.8345   40.8651  -10.5536 H   0  0  0  0  0  0  0  0  0  0  0  0
   30.3228   40.9505  -13.5703 H   0  0  0  0  0  0  0  0  0  0  0  0
   30.0452   42.6610  -13.2830 H   0  0  0  0  0  0  0  0  0  0  0  0
   28.9833   41.7507  -14.3787 H   0  0  0  0  0  0  0  0  0  0  0  0
   23.7269   41.1056  -10.9262 H   0  0  0  0  0  0  0  0  0  0  0  0
   22.3000   42.9434   -8.4561 H   0  0  0  0  0  0  0  0  0  0  0  0
   20.9188   41.9786   -8.6931 H   0  0  0  0  0  0  0  0  0  0  0  0
   23.2960   43.2815   -6.3320 H   0  0  0  0  0  0  0  0  0  0  0  0
   23.2086   42.9339   -3.8784 H   0  0  0  0  0  0  0  0  0  0  0  0
   21.7220   41.1811   -2.9181 H   0  0  0  0  0  0  0  0  0  0  0  0
   20.3034   39.7987   -4.4270 H   0  0  0  0  0  0  0  0  0  0  0  0
   20.3956   40.1262   -6.8782 H   0  0  0  0  0  0  0  0  0  0  0  0
   20.0257   40.1522   -9.3193 H   0  0  0  0  0  0  0  0  0  0  0  0
   20.2537   38.8428  -10.4156 H   0  0  0  0  0  0  0  0  0  0  0  0
   22.0589   39.8032  -12.6173 H   0  0  0  0  0  0  0  0  0  0  0  0
   20.8675   40.6702  -13.5588 H   0  0  0  0  0  0  0  0  0  0  0  0
   20.4607   39.1122  -12.8401 H   0  0  0  0  0  0  0  0  0  0  0  0
   18.3276   40.1789  -10.1233 H   0  0  0  0  0  0  0  0  0  0  0  0
   16.3369   41.2745  -11.8555 H   0  0  0  0  0  0  0  0  0  0  0  0
   16.7347   42.4260  -10.5861 H   0  0  0  0  0  0  0  0  0  0  0  0
   14.8701   41.0721   -9.8113 H   0  0  0  0  0  0  0  0  0  0  0  0
   16.2617   40.6696   -8.8452 H   0  0  0  0  0  0  0  0  0  0  0  0
   16.6257   38.6081  -10.2573 H   0  0  0  0  0  0  0  0  0  0  0  0
   15.2556   39.0583  -11.2399 H   0  0  0  0  0  0  0  0  0  0  0  0
   14.5779   37.3491   -9.6367 H   0  0  0  0  0  0  0  0  0  0  0  0
   13.7470   38.8444   -9.2262 H   0  0  0  0  0  0  0  0  0  0  0  0
   15.1356   38.3201   -8.2704 H   0  0  0  0  0  0  0  0  0  0  0  0
   22.9234   38.1989   -8.6727 H   0  0  0  0  0  0  0  0  0  0  0  0
  1  2  1  0  0  0  0
  1 40  1  0  0  0  0
  1 41  1  0  0  0  0
  1 42  1  0  0  0  0
  2  3  1  0  0  0  0
  2 43  1  0  0  0  0
  2 44  1  0  0  0  0
  3  4  1  0  0  0  0
  3 45  1  0  0  0  0
  3 46  1  0  0  0  0
  4  5  1  0  0  0  0
  4 47  1  0  0  0  0
  4 48  1  0  0  0  0
  5  6  1  0  0  0  0
  5 49  1  0  0  0  0
  6 11  1  0  0  0  0
  6  7  2  0  0  0  0
  7  8  1  0  0  0  0
  7 50  1  0  0  0  0
  8  9  2  0  0  0  0
  8 14  1  0  0  0  0
  9 10  1  0  0  0  0
  9 51  1  0  0  0  0
 10 11  2  0  0  0  0
 10 12  1  0  0  0  0
 12 13  1  0  0  0  0
 13 52  1  0  0  0  0
 13 53  1  0  0  0  0
 13 54  1  0  0  0  0
 14 15  2  0  0  0  0
 14 16  1  0  0  0  0
 16 17  1  0  0  0  0
 16 55  1  0  0  0  0
 17 37  1  1  0  0  0
 17 18  1  0  0  0  0
 17 25  1  0  0  0  0
 18 19  1  0  0  0  0
 18 56  1  0  0  0  0
 18 57  1  0  0  0  0
 19 24  1  0  0  0  0
 19 20  2  0  0  0  0
 20 21  1  0  0  0  0
 20 58  1  0  0  0  0
 21 22  2  0  0  0  0
 21 59  1  0  0  0  0
 22 23  1  0  0  0  0
 22 60  1  0  0  0  0
 23 24  2  0  0  0  0
 23 61  1  0  0  0  0
 24 62  1  0  0  0  0
 25 38  1  6  0  0  0
 25 26  1  0  0  0  0
 25 36  1  0  0  0  0
 26 27  1  0  0  0  0
 26 63  1  0  0  0  0
 26 64  1  0  0  0  0
 27 39  1  1  0  0  0
 27 28  1  0  0  0  0
 27 29  1  0  0  0  0
 28 65  1  0  0  0  0
 28 66  1  0  0  0  0
 28 67  1  0  0  0  0
 29 30  2  0  0  0  0
 29 31  1  0  0  0  0
 31 32  1  0  0  0  0
 31 68  1  0  0  0  0
 32 33  1  0  0  0  0
 32 69  1  0  0  0  0
 32 70  1  0  0  0  0
 33 34  1  0  0  0  0
 33 71  1  0  0  0  0
 33 72  1  0  0  0  0
 34 35  1  0  0  0  0
 34 73  1  0  0  0  0
 34 74  1  0  0  0  0
 35 75  1  0  0  0  0
 35 76  1  0  0  0  0
 35 77  1  0  0  0  0
 36 78  1  0  0  0  0
M  END
