BACE_13.smi:1
 OpenBabel09281823033D
Structure written by MMmdl.
 77 80  0  0  1  0  0  0  0  0999 V2000
   18.1548   43.1427  -13.1126 C   0  0  0  0  0  0  0  0  0  0  0  0
   16.8775   43.6381  -12.7394 O   0  0  0  0  0  0  0  0  0  0  0  0
   16.9165   44.4945  -11.6037 C   0  0  0  0  0  0  0  0  0  0  0  0
   17.3962   43.7880  -10.3499 C   0  0  0  0  0  0  0  0  0  0  0  0
   18.7649   43.8044  -10.0109 C   0  0  0  0  0  0  0  0  0  0  0  0
   19.2336   43.0691   -8.9016 C   0  0  0  0  0  0  0  0  0  0  0  0
   18.3099   42.3835   -8.0853 C   0  0  0  0  0  0  0  0  0  0  0  0
   16.9414   42.3611   -8.4213 C   0  0  0  0  0  0  0  0  0  0  0  0
   16.4876   43.0601   -9.5584 C   0  0  0  0  0  0  0  0  0  0  0  0
   16.0600   41.6115   -7.6398 N   0  0  0  0  0  0  0  0  0  0  0  0
   15.2099   40.6266   -8.2974 C   0  0  0  0  0  0  0  0  0  0  0  0
   16.0160   39.4991   -8.9694 C   0  0  0  0  0  0  0  0  0  0  0  0
   16.7972   38.6352   -7.9636 C   0  0  0  0  0  0  0  0  0  0  0  0
   17.6650   37.5575   -8.6382 C   0  0  0  0  0  0  0  0  0  0  0  0
   18.7064   38.1298   -9.4298 O   0  0  0  0  0  0  0  0  0  0  0  0
   19.8282   38.6500   -8.8138 C   0  0  0  0  0  0  0  0  0  0  0  0
   20.0977   38.5616   -7.4253 C   0  0  0  0  0  0  0  0  0  0  0  0
   21.2790   39.1081   -6.8893 C   0  0  0  0  0  0  0  0  0  0  0  0
   22.1974   39.7659   -7.7262 C   0  0  0  0  0  0  0  0  0  0  0  0
   21.9307   39.8887   -9.1046 C   0  0  0  0  0  0  0  0  0  0  0  0
   20.7576   39.3152   -9.6414 C   0  0  0  0  0  0  0  0  0  0  0  0
   22.8805   40.6816   -9.9897 C   0  0  0  0  0  0  0  0  0  0  0  0
   22.8242   42.2156   -9.7462 C   0  0  2  0  0  0  0  0  0  0  0  0
   21.4370   42.6798   -9.7148 N   0  0  0  0  0  0  0  0  0  0  0  0
   20.7017   42.9583   -8.6261 C   0  0  0  0  0  0  0  0  0  0  0  0
   21.1511   43.0154   -7.4822 O   0  0  0  0  0  0  0  0  0  0  0  0
   23.6133   43.0623  -10.7813 C   0  0  1  0  0  0  0  0  0  0  0  0
   25.1083   42.6842  -10.9414 C   0  0  1  0  0  0  0  0  0  0  0  0
   25.8308   43.5429  -12.0020 C   0  0  0  0  0  0  0  0  0  0  0  0
   27.1782   43.1068  -12.1502 O   0  0  0  0  0  0  0  0  0  0  0  0
   27.9631   43.1727  -10.9610 C   0  0  2  0  0  0  0  0  0  0  0  0
   27.2629   42.4043   -9.8224 C   0  0  0  0  0  0  0  0  0  0  0  0
   25.8498   42.8184   -9.6705 N   0  3  0  0  0  0  0  0  0  0  0  0
   28.3300   44.6267  -10.5896 C   0  0  0  0  0  0  0  0  0  0  0  0
   29.2572   44.6668   -9.5114 O   0  0  0  0  0  0  0  0  0  0  0  0
   30.6150   44.5240   -9.9010 C   0  0  0  0  0  0  0  0  0  0  0  0
   22.9756   42.9495  -12.0425 O   0  0  0  0  0  0  0  0  0  0  0  0
   23.2613   42.4002   -8.7641 H   0  0  0  0  0  0  0  0  0  0  0  0
   23.5468   44.1121  -10.4884 H   0  0  0  0  0  0  0  0  0  0  0  0
   25.1757   41.6380  -11.2406 H   0  0  0  0  0  0  0  0  0  0  0  0
   28.8880   42.6470  -11.1957 H   0  0  0  0  0  0  0  0  0  0  0  0
   18.0965   42.6016  -14.0515 H   0  0  0  0  0  0  0  0  0  0  0  0
   18.5526   42.4430  -12.3778 H   0  0  0  0  0  0  0  0  0  0  0  0
   18.8592   43.9638  -13.2396 H   0  0  0  0  0  0  0  0  0  0  0  0
   15.9117   44.8815  -11.4302 H   0  0  0  0  0  0  0  0  0  0  0  0
   17.5461   45.3616  -11.8093 H   0  0  0  0  0  0  0  0  0  0  0  0
   19.4604   44.3453  -10.6360 H   0  0  0  0  0  0  0  0  0  0  0  0
   18.6618   41.8155   -7.2364 H   0  0  0  0  0  0  0  0  0  0  0  0
   15.4425   43.0356   -9.8285 H   0  0  0  0  0  0  0  0  0  0  0  0
   16.3814   41.3453   -6.7149 H   0  0  0  0  0  0  0  0  0  0  0  0
   14.5680   41.1193   -9.0273 H   0  0  0  0  0  0  0  0  0  0  0  0
   14.5400   40.2013   -7.5484 H   0  0  0  0  0  0  0  0  0  0  0  0
   16.6972   39.9153   -9.7117 H   0  0  0  0  0  0  0  0  0  0  0  0
   15.3268   38.8603   -9.5214 H   0  0  0  0  0  0  0  0  0  0  0  0
   16.0871   38.1532   -7.2905 H   0  0  0  0  0  0  0  0  0  0  0  0
   17.4188   39.2673   -7.3305 H   0  0  0  0  0  0  0  0  0  0  0  0
   17.0387   36.9605   -9.3015 H   0  0  0  0  0  0  0  0  0  0  0  0
   18.0593   36.8513   -7.9081 H   0  0  0  0  0  0  0  0  0  0  0  0
   19.4170   38.0742   -6.7444 H   0  0  0  0  0  0  0  0  0  0  0  0
   21.4755   39.0305   -5.8304 H   0  0  0  0  0  0  0  0  0  0  0  0
   23.0906   40.1995   -7.3013 H   0  0  0  0  0  0  0  0  0  0  0  0
   20.5500   39.4042  -10.6974 H   0  0  0  0  0  0  0  0  0  0  0  0
   22.6554   40.4568  -11.0324 H   0  0  0  0  0  0  0  0  0  0  0  0
   23.8891   40.3107   -9.8121 H   0  0  0  0  0  0  0  0  0  0  0  0
   20.9550   42.6594  -10.6011 H   0  0  0  0  0  0  0  0  0  0  0  0
   25.7905   44.6033  -11.7474 H   0  0  0  0  0  0  0  0  0  0  0  0
   25.3466   43.4463  -12.9699 H   0  0  0  0  0  0  0  0  0  0  0  0
   27.7952   42.5551   -8.8823 H   0  0  0  0  0  0  0  0  0  0  0  0
   27.2856   41.3338  -10.0375 H   0  0  0  0  0  0  0  0  0  0  0  0
   25.8174   43.7805   -9.3620 H   0  0  0  0  0  0  0  0  0  0  0  0
   28.7204   45.1631  -11.4571 H   0  0  0  0  0  0  0  0  0  0  0  0
   27.4410   45.1690  -10.2674 H   0  0  0  0  0  0  0  0  0  0  0  0
   31.2523   44.5434   -9.0166 H   0  0  0  0  0  0  0  0  0  0  0  0
   30.9233   45.3480  -10.5460 H   0  0  0  0  0  0  0  0  0  0  0  0
   30.7967   43.5861  -10.4230 H   0  0  0  0  0  0  0  0  0  0  0  0
   23.1579   42.0868  -12.4040 H   0  0  0  0  0  0  0  0  0  0  0  0
   25.4178   42.2361   -8.9667 H   0  0  0  0  0  0  0  0  0  0  0  0
  1  2  1  0  0  0  0
  1 42  1  0  0  0  0
  1 43  1  0  0  0  0
  1 44  1  0  0  0  0
  2  3  1  0  0  0  0
  3  4  1  0  0  0  0
  3 45  1  0  0  0  0
  3 46  1  0  0  0  0
  4  9  1  0  0  0  0
  4  5  2  0  0  0  0
  5  6  1  0  0  0  0
  5 47  1  0  0  0  0
  6 25  1  0  0  0  0
  6  7  2  0  0  0  0
  7  8  1  0  0  0  0
  7 48  1  0  0  0  0
  8  9  2  0  0  0  0
  8 10  1  0  0  0  0
  9 49  1  0  0  0  0
 10 11  1  0  0  0  0
 10 50  1  0  0  0  0
 11 12  1  0  0  0  0
 11 51  1  0  0  0  0
 11 52  1  0  0  0  0
 12 13  1  0  0  0  0
 12 53  1  0  0  0  0
 12 54  1  0  0  0  0
 13 14  1  0  0  0  0
 13 55  1  0  0  0  0
 13 56  1  0  0  0  0
 14 15  1  0  0  0  0
 14 57  1  0  0  0  0
 14 58  1  0  0  0  0
 15 16  1  0  0  0  0
 16 21  1  0  0  0  0
 16 17  2  0  0  0  0
 17 18  1  0  0  0  0
 17 59  1  0  0  0  0
 18 19  2  0  0  0  0
 18 60  1  0  0  0  0
 19 20  1  0  0  0  0
 19 61  1  0  0  0  0
 20 21  2  0  0  0  0
 20 22  1  0  0  0  0
 21 62  1  0  0  0  0
 22 23  1  0  0  0  0
 22 63  1  0  0  0  0
 22 64  1  0  0  0  0
 23 38  1  1  0  0  0
 23 24  1  0  0  0  0
 23 27  1  0  0  0  0
 24 25  1  0  0  0  0
 24 65  1  0  0  0  0
 25 26  2  0  0  0  0
 27 39  1  1  0  0  0
 27 28  1  0  0  0  0
 27 37  1  0  0  0  0
 28 40  1  6  0  0  0
 28 33  1  0  0  0  0
 28 29  1  0  0  0  0
 29 30  1  0  0  0  0
 29 66  1  0  0  0  0
 29 67  1  0  0  0  0
 30 31  1  0  0  0  0
 31 41  1  6  0  0  0
 31 32  1  0  0  0  0
 31 34  1  0  0  0  0
 32 33  1  0  0  0  0
 32 68  1  0  0  0  0
 32 69  1  0  0  0  0
 33 70  1  0  0  0  0
 33 77  1  0  0  0  0
 34 35  1  0  0  0  0
 34 71  1  0  0  0  0
 34 72  1  0  0  0  0
 35 36  1  0  0  0  0
 36 73  1  0  0  0  0
 36 74  1  0  0  0  0
 36 75  1  0  0  0  0
 37 76  1  0  0  0  0
M  CHG  1  33   1
M  END
