BACE_8.smi:1
 OpenBabel09281823033D
Structure written by MMmdl.
 78 80  0  0  1  0  0  0  0  0999 V2000
   20.2141   38.5595   -7.2219 C   0  0  0  0  0  0  0  0  0  0  0  0
   19.5863   38.9717   -8.5698 C   0  0  2  0  0  0  0  0  0  0  0  0
   18.7317   37.8413   -9.1795 C   0  0  0  0  0  0  0  0  0  0  0  0
   17.4375   37.5401   -8.4107 C   0  0  0  0  0  0  0  0  0  0  0  0
   16.6070   38.6858   -8.4731 O   0  0  0  0  0  0  0  0  0  0  0  0
   15.5670   38.6547   -7.5111 C   0  0  0  0  0  0  0  0  0  0  0  0
   14.6442   39.8575   -7.6969 C   0  0  0  0  0  0  0  0  0  0  0  0
   15.2360   41.1989   -7.2400 C   0  0  0  0  0  0  0  0  0  0  0  0
   16.4811   41.6514   -8.0089 C   0  0  0  0  0  0  0  0  0  0  0  0
   16.8573   43.0045   -7.6401 N   0  0  0  0  0  0  0  0  0  0  0  0
   18.1347   43.4835   -7.9402 C   0  0  0  0  0  0  0  0  0  0  0  0
   18.9330   42.9223   -8.9612 C   0  0  0  0  0  0  0  0  0  0  0  0
   20.1993   43.4871   -9.2221 C   0  0  0  0  0  0  0  0  0  0  0  0
   20.6082   44.5972   -8.4551 C   0  0  0  0  0  0  0  0  0  0  0  0
   19.7479   45.0761   -7.4473 C   0  0  0  0  0  0  0  0  0  0  0  0
   18.5370   44.5363   -7.2011 N   0  0  0  0  0  0  0  0  0  0  0  0
   20.2425   46.4229   -6.4878 Cl  0  0  0  0  0  0  0  0  0  0  0  0
   21.0612   42.9619  -10.3352 C   0  0  0  0  0  0  0  0  0  0  0  0
   21.4254   43.7079  -11.2401 O   0  0  0  0  0  0  0  0  0  0  0  0
   21.4150   41.6639  -10.3297 N   0  0  0  0  0  0  0  0  0  0  0  0
   21.4223   40.7233   -9.1993 C   0  0  1  0  0  0  0  0  0  0  0  0
   20.6265   39.4555   -9.6029 C   0  0  0  0  0  0  0  0  0  0  0  0
   22.8772   40.3968   -8.7153 C   0  0  1  0  0  0  0  0  0  0  0  0
   23.9691   41.4454   -9.0366 C   0  0  0  0  0  0  0  0  0  0  0  0
   24.4241   41.3510  -10.4399 N   0  3  0  0  0  0  0  0  0  0  0  0
   24.8938   42.6184  -11.0314 C   0  0  0  0  0  0  0  0  0  0  0  0
   26.3327   42.8965  -10.6639 C   0  0  0  0  0  0  0  0  0  0  0  0
   26.6449   43.7476   -9.5863 C   0  0  0  0  0  0  0  0  0  0  0  0
   27.9905   44.0131   -9.2764 C   0  0  0  0  0  0  0  0  0  0  0  0
   29.0219   43.4414  -10.0465 C   0  0  0  0  0  0  0  0  0  0  0  0
   28.7179   42.5842  -11.1317 C   0  0  0  0  0  0  0  0  0  0  0  0
   27.3656   42.3106  -11.4219 C   0  0  0  0  0  0  0  0  0  0  0  0
   29.7983   41.9371  -12.0002 C   0  0  0  0  0  0  0  0  0  0  0  0
   31.2191   42.1076  -11.4493 C   0  0  0  0  0  0  0  0  0  0  0  0
   29.7341   42.4271  -13.4550 C   0  0  0  0  0  0  0  0  0  0  0  0
   22.8603   40.2798   -7.3101 O   0  0  0  0  0  0  0  0  0  0  0  0
   18.9224   39.8080   -8.3760 H   0  0  0  0  0  0  0  0  0  0  0  0
   20.9019   41.1955   -8.3649 H   0  0  0  0  0  0  0  0  0  0  0  0
   23.2038   39.4345   -9.1032 H   0  0  0  0  0  0  0  0  0  0  0  0
   21.0599   37.8844   -7.3571 H   0  0  0  0  0  0  0  0  0  0  0  0
   19.4986   38.0675   -6.5624 H   0  0  0  0  0  0  0  0  0  0  0  0
   20.5516   39.4349   -6.6702 H   0  0  0  0  0  0  0  0  0  0  0  0
   18.4554   38.0849  -10.2047 H   0  0  0  0  0  0  0  0  0  0  0  0
   19.3430   36.9470   -9.2415 H   0  0  0  0  0  0  0  0  0  0  0  0
   16.9156   36.6929   -8.8560 H   0  0  0  0  0  0  0  0  0  0  0  0
   17.6603   37.2650   -7.3801 H   0  0  0  0  0  0  0  0  0  0  0  0
   14.9777   37.7499   -7.6392 H   0  0  0  0  0  0  0  0  0  0  0  0
   15.9770   38.6473   -6.5000 H   0  0  0  0  0  0  0  0  0  0  0  0
   14.3108   39.9159   -8.7339 H   0  0  0  0  0  0  0  0  0  0  0  0
   13.7531   39.6677   -7.0982 H   0  0  0  0  0  0  0  0  0  0  0  0
   14.4627   41.9586   -7.3373 H   0  0  0  0  0  0  0  0  0  0  0  0
   15.4657   41.1447   -6.1734 H   0  0  0  0  0  0  0  0  0  0  0  0
   17.3016   40.9841   -7.7638 H   0  0  0  0  0  0  0  0  0  0  0  0
   16.3084   41.5991   -9.0836 H   0  0  0  0  0  0  0  0  0  0  0  0
   16.3958   43.3537   -6.8047 H   0  0  0  0  0  0  0  0  0  0  0  0
   18.5838   42.0871   -9.5488 H   0  0  0  0  0  0  0  0  0  0  0  0
   21.5622   45.0726   -8.6303 H   0  0  0  0  0  0  0  0  0  0  0  0
   21.8016   41.3231  -11.1966 H   0  0  0  0  0  0  0  0  0  0  0  0
   21.2984   38.6347   -9.8603 H   0  0  0  0  0  0  0  0  0  0  0  0
   20.0839   39.6618  -10.5269 H   0  0  0  0  0  0  0  0  0  0  0  0
   23.6029   42.4434   -8.7962 H   0  0  0  0  0  0  0  0  0  0  0  0
   24.8568   41.2871   -8.4232 H   0  0  0  0  0  0  0  0  0  0  0  0
   25.1552   40.6542  -10.5052 H   0  0  0  0  0  0  0  0  0  0  0  0
   24.8259   42.5501  -12.1177 H   0  0  0  0  0  0  0  0  0  0  0  0
   24.2474   43.4499  -10.7454 H   0  0  0  0  0  0  0  0  0  0  0  0
   25.8612   44.2026   -8.9981 H   0  0  0  0  0  0  0  0  0  0  0  0
   28.2354   44.6675   -8.4541 H   0  0  0  0  0  0  0  0  0  0  0  0
   30.0416   43.6816   -9.7851 H   0  0  0  0  0  0  0  0  0  0  0  0
   27.1212   41.6550  -12.2446 H   0  0  0  0  0  0  0  0  0  0  0  0
   29.5837   40.8666  -12.0061 H   0  0  0  0  0  0  0  0  0  0  0  0
   31.2605   41.7504  -10.4235 H   0  0  0  0  0  0  0  0  0  0  0  0
   31.5346   43.1509  -11.4598 H   0  0  0  0  0  0  0  0  0  0  0  0
   31.9387   41.5410  -12.0405 H   0  0  0  0  0  0  0  0  0  0  0  0
   28.7778   42.1942  -13.9174 H   0  0  0  0  0  0  0  0  0  0  0  0
   30.5030   41.9488  -14.0635 H   0  0  0  0  0  0  0  0  0  0  0  0
   29.8846   43.5057  -13.5184 H   0  0  0  0  0  0  0  0  0  0  0  0
   22.2557   39.5925   -7.0684 H   0  0  0  0  0  0  0  0  0  0  0  0
   23.6583   41.0334  -11.0120 H   0  0  0  0  0  0  0  0  0  0  0  0
  1  2  1  0  0  0  0
  1 40  1  0  0  0  0
  1 41  1  0  0  0  0
  1 42  1  0  0  0  0
  2 37  1  1  0  0  0
  2 22  1  0  0  0  0
  2  3  1  0  0  0  0
  3  4  1  0  0  0  0
  3 43  1  0  0  0  0
  3 44  1  0  0  0  0
  4  5  1  0  0  0  0
  4 45  1  0  0  0  0
  4 46  1  0  0  0  0
  5  6  1  0  0  0  0
  6  7  1  0  0  0  0
  6 47  1  0  0  0  0
  6 48  1  0  0  0  0
  7  8  1  0  0  0  0
  7 49  1  0  0  0  0
  7 50  1  0  0  0  0
  8  9  1  0  0  0  0
  8 51  1  0  0  0  0
  8 52  1  0  0  0  0
  9 10  1  0  0  0  0
  9 53  1  0  0  0  0
  9 54  1  0  0  0  0
 10 11  1  0  0  0  0
 10 55  1  0  0  0  0
 11 16  1  0  0  0  0
 11 12  2  0  0  0  0
 12 13  1  0  0  0  0
 12 56  1  0  0  0  0
 13 14  2  0  0  0  0
 13 18  1  0  0  0  0
 14 15  1  0  0  0  0
 14 57  1  0  0  0  0
 15 16  2  0  0  0  0
 15 17  1  0  0  0  0
 18 19  2  0  0  0  0
 18 20  1  0  0  0  0
 20 21  1  0  0  0  0
 20 58  1  0  0  0  0
 21 38  1  1  0  0  0
 21 22  1  0  0  0  0
 21 23  1  0  0  0  0
 22 59  1  0  0  0  0
 22 60  1  0  0  0  0
 23 39  1  6  0  0  0
 23 24  1  0  0  0  0
 23 36  1  0  0  0  0
 24 25  1  0  0  0  0
 24 61  1  0  0  0  0
 24 62  1  0  0  0  0
 25 26  1  0  0  0  0
 25 63  1  0  0  0  0
 25 78  1  0  0  0  0
 26 27  1  0  0  0  0
 26 64  1  0  0  0  0
 26 65  1  0  0  0  0
 27 32  1  0  0  0  0
 27 28  2  0  0  0  0
 28 29  1  0  0  0  0
 28 66  1  0  0  0  0
 29 30  2  0  0  0  0
 29 67  1  0  0  0  0
 30 31  1  0  0  0  0
 30 68  1  0  0  0  0
 31 32  2  0  0  0  0
 31 33  1  0  0  0  0
 32 69  1  0  0  0  0
 33 34  1  0  0  0  0
 33 35  1  0  0  0  0
 33 70  1  0  0  0  0
 34 71  1  0  0  0  0
 34 72  1  0  0  0  0
 34 73  1  0  0  0  0
 35 74  1  0  0  0  0
 35 75  1  0  0  0  0
 35 76  1  0  0  0  0
 36 77  1  0  0  0  0
M  CHG  1  25   1
M  END
