BACE_5.smi:1
 OpenBabel09281823033D
Structure written by MMmdl.
 79 80  0  0  1  0  0  0  0  0999 V2000
   30.8600   41.7512  -11.3359 C   0  0  0  0  0  0  0  0  0  0  0  0
   29.5075   42.4522  -11.1576 C   0  0  0  0  0  0  0  0  0  0  0  0
   28.4019   41.8496  -12.0413 C   0  0  0  0  0  0  0  0  0  0  0  0
   27.0463   42.4362  -11.7494 C   0  0  0  0  0  0  0  0  0  0  0  0
   26.0582   41.9538  -10.8399 C   0  0  0  0  0  0  0  0  0  0  0  0
   25.0238   42.8405  -10.9582 C   0  0  0  0  0  0  0  0  0  0  0  0
   25.4233   43.7702  -11.8911 N   0  0  0  0  0  0  0  0  0  0  0  0
   26.6547   43.5343  -12.3816 N   0  0  0  0  0  0  0  0  0  0  0  0
   23.6933   42.9079  -10.2824 C   0  0  0  0  0  0  0  0  0  0  0  0
   22.8672   41.7401  -10.5746 N   0  0  0  0  0  0  0  0  0  0  0  0
   23.0251   40.6579   -9.6044 C   0  0  0  0  0  0  0  0  0  0  0  0
   21.9216   39.5872   -9.7489 C   0  0  2  0  0  0  0  0  0  0  0  0
   20.5058   40.0952   -9.4917 C   0  0  2  0  0  0  0  0  0  0  0  0
   19.5197   38.9248   -9.7063 C   0  0  0  0  0  0  0  0  0  0  0  0
   18.0597   39.1893   -9.2705 C   0  0  1  0  0  0  0  0  0  0  0  0
   17.1663   39.7728  -10.3810 C   0  0  0  0  0  0  0  0  0  0  0  0
   15.7899   40.2289   -9.8652 C   0  0  0  0  0  0  0  0  0  0  0  0
   14.9649   40.9333  -10.9598 C   0  0  0  0  0  0  0  0  0  0  0  0
   13.7071   41.6737  -10.4538 C   0  0  0  0  0  0  0  0  0  0  0  0
   13.9484   42.7943   -9.4112 C   0  0  0  0  0  0  0  0  0  0  0  0
   15.1237   43.7523   -9.7046 C   0  0  0  0  0  0  0  0  0  0  0  0
   15.0017   44.5452  -11.0247 O   0  0  0  0  0  0  0  0  0  0  0  0
   16.3039   45.2832  -11.4251 C   0  0  0  0  0  0  0  0  0  0  0  0
   17.4475   44.3453  -11.8335 C   0  0  0  0  0  0  0  0  0  0  0  0
   17.3134   43.6249  -12.8089 O   0  0  0  0  0  0  0  0  0  0  0  0
   18.5485   44.3741  -11.0688 N   0  0  0  0  0  0  0  0  0  0  0  0
   19.6770   43.4341  -11.2499 C   0  0  2  0  0  0  0  0  0  0  0  0
   19.7563   42.4132  -10.0918 C   0  0  0  0  0  0  0  0  0  0  0  0
   19.4192   42.7047   -8.9561 O   0  0  0  0  0  0  0  0  0  0  0  0
   20.2651   41.2136  -10.4078 N   0  0  0  0  0  0  0  0  0  0  0  0
   20.9788   44.2302  -11.2449 C   0  0  0  0  0  0  0  0  0  0  0  0
   18.5468   45.2665   -9.9272 C   0  0  0  0  0  0  0  0  0  0  0  0
   17.4342   37.8783   -8.8029 C   0  0  0  0  0  0  0  0  0  0  0  0
   22.2395   38.5466   -8.8438 O   0  0  0  0  0  0  0  0  0  0  0  0
   24.8731   44.5595  -12.1982 H   0  0  0  0  0  0  0  0  0  0  0  0
   21.9940   39.1671  -10.7530 H   0  0  0  0  0  0  0  0  0  0  0  0
   20.4964   40.4037   -8.4463 H   0  0  0  0  0  0  0  0  0  0  0  0
   18.0545   39.8413   -8.3970 H   0  0  0  0  0  0  0  0  0  0  0  0
   19.6504   42.9145  -12.2077 H   0  0  0  0  0  0  0  0  0  0  0  0
   31.6172   42.2031  -10.6948 H   0  0  0  0  0  0  0  0  0  0  0  0
   31.2116   41.8246  -12.3654 H   0  0  0  0  0  0  0  0  0  0  0  0
   30.7957   40.6940  -11.0768 H   0  0  0  0  0  0  0  0  0  0  0  0
   29.6263   43.5126  -11.3833 H   0  0  0  0  0  0  0  0  0  0  0  0
   29.2125   42.3909  -10.1093 H   0  0  0  0  0  0  0  0  0  0  0  0
   28.3697   40.7692  -11.8952 H   0  0  0  0  0  0  0  0  0  0  0  0
   28.6512   42.0007  -13.0926 H   0  0  0  0  0  0  0  0  0  0  0  0
   26.1037   41.0869  -10.1972 H   0  0  0  0  0  0  0  0  0  0  0  0
   23.1744   43.8157  -10.5932 H   0  0  0  0  0  0  0  0  0  0  0  0
   23.8443   42.9954   -9.2060 H   0  0  0  0  0  0  0  0  0  0  0  0
   23.0955   41.3903  -11.4997 H   0  0  0  0  0  0  0  0  0  0  0  0
   23.0475   41.0564   -8.5902 H   0  0  0  0  0  0  0  0  0  0  0  0
   23.9948   40.1835   -9.7632 H   0  0  0  0  0  0  0  0  0  0  0  0
   19.5608   38.5717  -10.7367 H   0  0  0  0  0  0  0  0  0  0  0  0
   19.8930   38.0902   -9.1129 H   0  0  0  0  0  0  0  0  0  0  0  0
   17.6643   40.6257  -10.8422 H   0  0  0  0  0  0  0  0  0  0  0  0
   17.0403   39.0383  -11.1764 H   0  0  0  0  0  0  0  0  0  0  0  0
   15.9455   40.9070   -9.0261 H   0  0  0  0  0  0  0  0  0  0  0  0
   15.2330   39.3808   -9.4670 H   0  0  0  0  0  0  0  0  0  0  0  0
   15.5977   41.6427  -11.4932 H   0  0  0  0  0  0  0  0  0  0  0  0
   14.6695   40.1988  -11.7091 H   0  0  0  0  0  0  0  0  0  0  0  0
   13.0042   40.9507  -10.0401 H   0  0  0  0  0  0  0  0  0  0  0  0
   13.1968   42.1031  -11.3159 H   0  0  0  0  0  0  0  0  0  0  0  0
   13.0315   43.3712   -9.2907 H   0  0  0  0  0  0  0  0  0  0  0  0
   14.1221   42.3331   -8.4390 H   0  0  0  0  0  0  0  0  0  0  0  0
   16.0506   43.1788   -9.6960 H   0  0  0  0  0  0  0  0  0  0  0  0
   15.2227   44.4563   -8.8784 H   0  0  0  0  0  0  0  0  0  0  0  0
   16.6174   45.9492  -10.6212 H   0  0  0  0  0  0  0  0  0  0  0  0
   16.1103   45.9348  -12.2772 H   0  0  0  0  0  0  0  0  0  0  0  0
   20.5327   41.0732  -11.3715 H   0  0  0  0  0  0  0  0  0  0  0  0
   21.8403   43.5809  -11.4062 H   0  0  0  0  0  0  0  0  0  0  0  0
   21.1353   44.7548  -10.3017 H   0  0  0  0  0  0  0  0  0  0  0  0
   20.9879   44.9767  -12.0399 H   0  0  0  0  0  0  0  0  0  0  0  0
   19.5207   45.3632   -9.4513 H   0  0  0  0  0  0  0  0  0  0  0  0
   17.8465   44.9268   -9.1631 H   0  0  0  0  0  0  0  0  0  0  0  0
   18.2801   46.2822  -10.2223 H   0  0  0  0  0  0  0  0  0  0  0  0
   16.3980   38.0155   -8.4945 H   0  0  0  0  0  0  0  0  0  0  0  0
   17.9609   37.4606   -7.9455 H   0  0  0  0  0  0  0  0  0  0  0  0
   17.4429   37.1261   -9.5925 H   0  0  0  0  0  0  0  0  0  0  0  0
   23.0987   38.2160   -9.0569 H   0  0  0  0  0  0  0  0  0  0  0  0
  1  2  1  0  0  0  0
  1 40  1  0  0  0  0
  1 41  1  0  0  0  0
  1 42  1  0  0  0  0
  2  3  1  0  0  0  0
  2 43  1  0  0  0  0
  2 44  1  0  0  0  0
  3 45  1  0  0  0  0
  3 46  1  0  0  0  0
  3  4  1  0  0  0  0
  4  8  2  0  0  0  0
  4  5  1  0  0  0  0
  5  6  2  0  0  0  0
  5 47  1  0  0  0  0
  6  7  1  0  0  0  0
  6  9  1  0  0  0  0
  7  8  1  0  0  0  0
  7 35  1  0  0  0  0
  9 10  1  0  0  0  0
  9 48  1  0  0  0  0
  9 49  1  0  0  0  0
 10 11  1  0  0  0  0
 10 50  1  0  0  0  0
 11 12  1  0  0  0  0
 11 51  1  0  0  0  0
 11 52  1  0  0  0  0
 12 36  1  6  0  0  0
 12 13  1  0  0  0  0
 12 34  1  0  0  0  0
 13 37  1  1  0  0  0
 13 30  1  0  0  0  0
 13 14  1  0  0  0  0
 14 15  1  0  0  0  0
 14 53  1  0  0  0  0
 14 54  1  0  0  0  0
 15 38  1  1  0  0  0
 15 16  1  0  0  0  0
 15 33  1  0  0  0  0
 16 17  1  0  0  0  0
 16 55  1  0  0  0  0
 16 56  1  0  0  0  0
 17 18  1  0  0  0  0
 17 57  1  0  0  0  0
 17 58  1  0  0  0  0
 18 19  1  0  0  0  0
 18 59  1  0  0  0  0
 18 60  1  0  0  0  0
 19 20  1  0  0  0  0
 19 61  1  0  0  0  0
 19 62  1  0  0  0  0
 20 21  1  0  0  0  0
 20 63  1  0  0  0  0
 20 64  1  0  0  0  0
 21 22  1  0  0  0  0
 21 65  1  0  0  0  0
 21 66  1  0  0  0  0
 22 23  1  0  0  0  0
 23 24  1  0  0  0  0
 23 67  1  0  0  0  0
 23 68  1  0  0  0  0
 24 25  2  0  0  0  0
 24 26  1  0  0  0  0
 26 27  1  0  0  0  0
 26 32  1  0  0  0  0
 27 39  1  6  0  0  0
 27 28  1  0  0  0  0
 27 31  1  0  0  0  0
 28 29  2  0  0  0  0
 28 30  1  0  0  0  0
 30 69  1  0  0  0  0
 31 70  1  0  0  0  0
 31 71  1  0  0  0  0
 31 72  1  0  0  0  0
 32 73  1  0  0  0  0
 32 74  1  0  0  0  0
 32 75  1  0  0  0  0
 33 76  1  0  0  0  0
 33 77  1  0  0  0  0
 33 78  1  0  0  0  0
 34 79  1  0  0  0  0
M  END
