BACE_11.smi:1
 OpenBabel09281823033D
Structure written by MMmdl.
 81 83  0  0  1  0  0  0  0  0999 V2000
   21.9242   41.8868   -4.3629 C   0  0  0  0  0  0  0  0  0  0  0  0
   21.6261   41.7499   -5.8689 C   0  0  1  0  0  0  0  0  0  0  0  0
   20.7343   40.5496   -6.2549 C   0  0  0  0  0  0  0  0  0  0  0  0
   20.9075   39.4815   -5.6814 O   0  0  0  0  0  0  0  0  0  0  0  0
   19.8623   40.7066   -7.2659 N   0  0  0  0  0  0  0  0  0  0  0  0
   19.0852   39.6783   -7.9708 C   0  0  1  0  0  0  0  0  0  0  0  0
   19.9588   38.7539   -8.8526 C   0  0  0  0  0  0  0  0  0  0  0  0
   20.6102   39.5537   -9.9690 C   0  0  0  0  0  0  0  0  0  0  0  0
   19.9987   39.6343  -11.2367 C   0  0  0  0  0  0  0  0  0  0  0  0
   20.5275   40.4937  -12.2168 C   0  0  0  0  0  0  0  0  0  0  0  0
   21.6489   41.2946  -11.9243 C   0  0  0  0  0  0  0  0  0  0  0  0
   22.2807   41.2114  -10.6591 C   0  0  0  0  0  0  0  0  0  0  0  0
   21.7696   40.3101   -9.7069 C   0  0  0  0  0  0  0  0  0  0  0  0
   23.3634   41.9687  -10.2701 O   0  0  0  0  0  0  0  0  0  0  0  0
   23.8198   42.9967  -11.1355 C   0  0  0  0  0  0  0  0  0  0  0  0
   24.8975   43.8285  -10.4222 C   0  0  0  0  0  0  0  0  0  0  0  0
   24.3550   44.8408   -9.3891 C   0  0  0  0  0  0  0  0  0  0  0  0
   24.5871   44.4777   -7.9051 C   0  0  0  0  0  0  0  0  0  0  0  0
   23.6384   43.4237   -7.2894 C   0  0  0  0  0  0  0  0  0  0  0  0
   22.1801   43.8854   -7.0841 C   0  0  0  0  0  0  0  0  0  0  0  0
   21.8471   45.0026   -7.4870 O   0  0  0  0  0  0  0  0  0  0  0  0
   21.2901   43.0693   -6.4577 N   0  0  0  0  0  0  0  0  0  0  0  0
   19.9378   43.5914   -6.2070 C   0  0  0  0  0  0  0  0  0  0  0  0
   17.9810   38.9928   -7.1164 C   0  0  1  0  0  0  0  0  0  0  0  0
   16.7181   38.6391   -7.9448 C   0  0  0  0  0  0  0  0  0  0  0  0
   15.4471   38.9501   -7.2444 N   0  3  0  0  0  0  0  0  0  0  0  0
   15.1400   40.3786   -6.9914 C   0  0  0  0  0  0  0  0  0  0  0  0
   15.4804   41.3601   -8.1133 C   0  0  0  0  0  0  0  0  0  0  0  0
   16.6505   42.1431   -8.0405 C   0  0  0  0  0  0  0  0  0  0  0  0
   16.9069   43.1306   -9.0045 C   0  0  0  0  0  0  0  0  0  0  0  0
   15.9751   43.3795  -10.0269 C   0  0  0  0  0  0  0  0  0  0  0  0
   14.7842   42.6196  -10.1140 C   0  0  0  0  0  0  0  0  0  0  0  0
   14.5797   41.5773   -9.1798 C   0  0  0  0  0  0  0  0  0  0  0  0
   13.7076   42.9102  -11.1699 C   0  0  0  0  0  0  0  0  0  0  0  0
   13.9921   44.1513  -12.0411 C   0  0  0  0  0  0  0  0  0  0  0  0
   12.3051   43.0507  -10.5461 C   0  0  0  0  0  0  0  0  0  0  0  0
   18.4601   37.7925   -6.5446 O   0  0  0  0  0  0  0  0  0  0  0  0
   22.5648   41.4073   -6.2953 H   0  0  0  0  0  0  0  0  0  0  0  0
   18.5387   40.2975   -8.6788 H   0  0  0  0  0  0  0  0  0  0  0  0
   17.7064   39.6664   -6.3148 H   0  0  0  0  0  0  0  0  0  0  0  0
   22.2613   40.9426   -3.9334 H   0  0  0  0  0  0  0  0  0  0  0  0
   21.0395   42.2018   -3.8102 H   0  0  0  0  0  0  0  0  0  0  0  0
   22.7097   42.6208   -4.1810 H   0  0  0  0  0  0  0  0  0  0  0  0
   19.8154   41.6342   -7.6603 H   0  0  0  0  0  0  0  0  0  0  0  0
   20.7219   38.2506   -8.2545 H   0  0  0  0  0  0  0  0  0  0  0  0
   19.3459   37.9652   -9.2917 H   0  0  0  0  0  0  0  0  0  0  0  0
   19.1106   39.0579  -11.4538 H   0  0  0  0  0  0  0  0  0  0  0  0
   20.0587   40.5516  -13.1877 H   0  0  0  0  0  0  0  0  0  0  0  0
   22.0282   41.9483  -12.6941 H   0  0  0  0  0  0  0  0  0  0  0  0
   22.2460   40.2481   -8.7397 H   0  0  0  0  0  0  0  0  0  0  0  0
   24.2497   42.5502  -12.0323 H   0  0  0  0  0  0  0  0  0  0  0  0
   22.9997   43.6415  -11.4534 H   0  0  0  0  0  0  0  0  0  0  0  0
   25.6505   43.1745   -9.9788 H   0  0  0  0  0  0  0  0  0  0  0  0
   25.4226   44.3952  -11.1918 H   0  0  0  0  0  0  0  0  0  0  0  0
   24.8780   45.7817   -9.5624 H   0  0  0  0  0  0  0  0  0  0  0  0
   23.3077   45.0678   -9.5862 H   0  0  0  0  0  0  0  0  0  0  0  0
   25.6194   44.1483   -7.7761 H   0  0  0  0  0  0  0  0  0  0  0  0
   24.5101   45.3917   -7.3134 H   0  0  0  0  0  0  0  0  0  0  0  0
   23.6590   42.5183   -7.8937 H   0  0  0  0  0  0  0  0  0  0  0  0
   24.0415   43.1547   -6.3126 H   0  0  0  0  0  0  0  0  0  0  0  0
   19.3932   43.7142   -7.1450 H   0  0  0  0  0  0  0  0  0  0  0  0
   19.9821   44.5652   -5.7130 H   0  0  0  0  0  0  0  0  0  0  0  0
   19.3443   42.9492   -5.5585 H   0  0  0  0  0  0  0  0  0  0  0  0
   16.7077   39.1479   -8.9079 H   0  0  0  0  0  0  0  0  0  0  0  0
   16.7123   37.5760   -8.1935 H   0  0  0  0  0  0  0  0  0  0  0  0
   14.6945   38.5907   -7.8102 H   0  0  0  0  0  0  0  0  0  0  0  0
   14.0658   40.4280   -6.8394 H   0  0  0  0  0  0  0  0  0  0  0  0
   15.6080   40.7005   -6.0602 H   0  0  0  0  0  0  0  0  0  0  0  0
   17.3523   42.0015   -7.2353 H   0  0  0  0  0  0  0  0  0  0  0  0
   17.8068   43.7218   -8.9447 H   0  0  0  0  0  0  0  0  0  0  0  0
   16.1954   44.1750  -10.7197 H   0  0  0  0  0  0  0  0  0  0  0  0
   13.6833   40.9771   -9.2404 H   0  0  0  0  0  0  0  0  0  0  0  0
   13.6855   42.0403  -11.8247 H   0  0  0  0  0  0  0  0  0  0  0  0
   14.9469   44.0836  -12.5610 H   0  0  0  0  0  0  0  0  0  0  0  0
   14.0101   45.0620  -11.4400 H   0  0  0  0  0  0  0  0  0  0  0  0
   13.2239   44.2746  -12.8061 H   0  0  0  0  0  0  0  0  0  0  0  0
   11.9834   42.1379  -10.0438 H   0  0  0  0  0  0  0  0  0  0  0  0
   11.5571   43.2696  -11.3103 H   0  0  0  0  0  0  0  0  0  0  0  0
   12.2830   43.8566   -9.8108 H   0  0  0  0  0  0  0  0  0  0  0  0
   17.7358   37.3136   -6.1552 H   0  0  0  0  0  0  0  0  0  0  0  0
   15.4131   38.4389   -6.3630 H   0  0  0  0  0  0  0  0  0  0  0  0
  1  2  1  0  0  0  0
  1 41  1  0  0  0  0
  1 42  1  0  0  0  0
  1 43  1  0  0  0  0
  2 38  1  6  0  0  0
  2 22  1  0  0  0  0
  2  3  1  0  0  0  0
  3  4  2  0  0  0  0
  3  5  1  0  0  0  0
  5  6  1  0  0  0  0
  5 44  1  0  0  0  0
  6 39  1  6  0  0  0
  6  7  1  0  0  0  0
  6 24  1  0  0  0  0
  7  8  1  0  0  0  0
  7 45  1  0  0  0  0
  7 46  1  0  0  0  0
  8 13  1  0  0  0  0
  8  9  2  0  0  0  0
  9 10  1  0  0  0  0
  9 47  1  0  0  0  0
 10 11  2  0  0  0  0
 10 48  1  0  0  0  0
 11 12  1  0  0  0  0
 11 49  1  0  0  0  0
 12 13  2  0  0  0  0
 12 14  1  0  0  0  0
 13 50  1  0  0  0  0
 14 15  1  0  0  0  0
 15 16  1  0  0  0  0
 15 51  1  0  0  0  0
 15 52  1  0  0  0  0
 16 17  1  0  0  0  0
 16 53  1  0  0  0  0
 16 54  1  0  0  0  0
 17 18  1  0  0  0  0
 17 55  1  0  0  0  0
 17 56  1  0  0  0  0
 18 19  1  0  0  0  0
 18 57  1  0  0  0  0
 18 58  1  0  0  0  0
 19 20  1  0  0  0  0
 19 59  1  0  0  0  0
 19 60  1  0  0  0  0
 20 21  2  0  0  0  0
 20 22  1  0  0  0  0
 22 23  1  0  0  0  0
 23 61  1  0  0  0  0
 23 62  1  0  0  0  0
 23 63  1  0  0  0  0
 24 40  1  1  0  0  0
 24 25  1  0  0  0  0
 24 37  1  0  0  0  0
 25 26  1  0  0  0  0
 25 64  1  0  0  0  0
 25 65  1  0  0  0  0
 26 27  1  0  0  0  0
 26 66  1  0  0  0  0
 26 81  1  0  0  0  0
 27 28  1  0  0  0  0
 27 67  1  0  0  0  0
 27 68  1  0  0  0  0
 28 33  1  0  0  0  0
 28 29  2  0  0  0  0
 29 30  1  0  0  0  0
 29 69  1  0  0  0  0
 30 31  2  0  0  0  0
 30 70  1  0  0  0  0
 31 32  1  0  0  0  0
 31 71  1  0  0  0  0
 32 33  2  0  0  0  0
 32 34  1  0  0  0  0
 33 72  1  0  0  0  0
 34 35  1  0  0  0  0
 34 36  1  0  0  0  0
 34 73  1  0  0  0  0
 35 74  1  0  0  0  0
 35 75  1  0  0  0  0
 35 76  1  0  0  0  0
 36 77  1  0  0  0  0
 36 78  1  0  0  0  0
 36 79  1  0  0  0  0
 37 80  1  0  0  0  0
M  CHG  1  26   1
M  END
