BACE_5.smi:1
 OpenBabel09281823033D
Structure written by MMmdl.
 79 80  0  0  1  0  0  0  0  0999 V2000
   15.4255   39.8693   -6.4241 C   0  0  0  0  0  0  0  0  0  0  0  0
   14.4535   38.9861   -7.2170 C   0  0  0  0  0  0  0  0  0  0  0  0
   14.7488   38.9272   -8.7198 C   0  0  0  0  0  0  0  0  0  0  0  0
   16.1355   38.4666   -9.0293 C   0  0  0  0  0  0  0  0  0  0  0  0
   17.1058   39.0036   -9.8276 C   0  0  0  0  0  0  0  0  0  0  0  0
   18.2236   38.1391   -9.6451 C   0  0  0  0  0  0  0  0  0  0  0  0
   17.9559   37.1260   -8.8382 N   0  0  0  0  0  0  0  0  0  0  0  0
   16.6909   37.3511   -8.4403 N   0  0  0  0  0  0  0  0  0  0  0  0
   19.6216   38.2947  -10.1721 C   0  0  0  0  0  0  0  0  0  0  0  0
   20.3826   39.3319   -9.4730 N   0  0  0  0  0  0  0  0  0  0  0  0
   20.4177   39.1841   -8.0119 C   0  0  0  0  0  0  0  0  0  0  0  0
   21.4015   40.1659   -7.3504 C   0  0  2  0  0  0  0  0  0  0  0  0
   21.2561   41.6491   -7.7776 C   0  0  2  0  0  0  0  0  0  0  0  0
   22.3122   42.5928   -7.1471 C   0  0  0  0  0  0  0  0  0  0  0  0
   22.4178   42.6314   -5.6007 C   0  0  1  0  0  0  0  0  0  0  0  0
   23.6307   43.4632   -5.1268 C   0  0  0  0  0  0  0  0  0  0  0  0
   23.7507   44.9312   -5.6066 C   0  0  0  0  0  0  0  0  0  0  0  0
   22.8736   45.9351   -4.8403 C   0  0  0  0  0  0  0  0  0  0  0  0
   23.0410   47.4055   -5.2708 C   0  0  0  0  0  0  0  0  0  0  0  0
   22.7742   47.7065   -6.7594 C   0  0  0  0  0  0  0  0  0  0  0  0
   21.4062   47.2434   -7.2820 C   0  0  0  0  0  0  0  0  0  0  0  0
   20.3563   47.9108   -6.5851 O   0  0  0  0  0  0  0  0  0  0  0  0
   19.0436   47.6196   -7.0698 C   0  0  0  0  0  0  0  0  0  0  0  0
   18.6719   46.1478   -6.7896 C   0  0  0  0  0  0  0  0  0  0  0  0
   18.8604   45.7510   -5.6400 O   0  0  0  0  0  0  0  0  0  0  0  0
   18.1922   45.3444   -7.7793 N   0  0  0  0  0  0  0  0  0  0  0  0
   18.1277   43.8675   -7.5809 C   0  0  2  0  0  0  0  0  0  0  0  0
   19.3626   43.1938   -8.2057 C   0  0  0  0  0  0  0  0  0  0  0  0
   19.8351   43.6118   -9.2637 O   0  0  0  0  0  0  0  0  0  0  0  0
   19.9078   42.1700   -7.5276 N   0  0  0  0  0  0  0  0  0  0  0  0
   16.8559   43.2385   -8.1913 C   0  0  0  0  0  0  0  0  0  0  0  0
   17.8824   45.8930   -9.1114 C   0  0  0  0  0  0  0  0  0  0  0  0
   21.1203   43.0270   -4.8714 C   0  0  0  0  0  0  0  0  0  0  0  0
   22.6994   39.6904   -7.6424 O   0  0  0  0  0  0  0  0  0  0  0  0
   16.2615   36.8104   -7.6851 H   0  0  0  0  0  0  0  0  0  0  0  0
   21.2657   40.0886   -6.2724 H   0  0  0  0  0  0  0  0  0  0  0  0
   21.4295   41.6876   -8.8542 H   0  0  0  0  0  0  0  0  0  0  0  0
   22.6407   41.6185   -5.2669 H   0  0  0  0  0  0  0  0  0  0  0  0
   18.1094   43.6212   -6.5173 H   0  0  0  0  0  0  0  0  0  0  0  0
   15.2600   39.7511   -5.3562 H   0  0  0  0  0  0  0  0  0  0  0  0
   15.2752   40.9234   -6.6549 H   0  0  0  0  0  0  0  0  0  0  0  0
   16.4693   39.6157   -6.6072 H   0  0  0  0  0  0  0  0  0  0  0  0
   13.4414   39.3498   -7.0550 H   0  0  0  0  0  0  0  0  0  0  0  0
   14.4612   37.9703   -6.8215 H   0  0  0  0  0  0  0  0  0  0  0  0
   14.5879   39.9142   -9.1513 H   0  0  0  0  0  0  0  0  0  0  0  0
   14.0303   38.2662   -9.2024 H   0  0  0  0  0  0  0  0  0  0  0  0
   17.0436   39.9036  -10.4195 H   0  0  0  0  0  0  0  0  0  0  0  0
   19.5921   38.5175  -11.2395 H   0  0  0  0  0  0  0  0  0  0  0  0
   20.1526   37.3501  -10.0787 H   0  0  0  0  0  0  0  0  0  0  0  0
   20.0294   40.2510   -9.7263 H   0  0  0  0  0  0  0  0  0  0  0  0
   20.6774   38.1616   -7.7380 H   0  0  0  0  0  0  0  0  0  0  0  0
   19.4227   39.3628   -7.6009 H   0  0  0  0  0  0  0  0  0  0  0  0
   23.2900   42.3177   -7.5451 H   0  0  0  0  0  0  0  0  0  0  0  0
   22.1268   43.5996   -7.5230 H   0  0  0  0  0  0  0  0  0  0  0  0
   23.6599   43.4189   -4.0402 H   0  0  0  0  0  0  0  0  0  0  0  0
   24.5340   42.9500   -5.4532 H   0  0  0  0  0  0  0  0  0  0  0  0
   23.5756   45.0028   -6.6778 H   0  0  0  0  0  0  0  0  0  0  0  0
   24.7885   45.2380   -5.4674 H   0  0  0  0  0  0  0  0  0  0  0  0
   21.8225   45.6689   -4.9138 H   0  0  0  0  0  0  0  0  0  0  0  0
   23.1369   45.8598   -3.7860 H   0  0  0  0  0  0  0  0  0  0  0  0
   24.0514   47.7335   -5.0254 H   0  0  0  0  0  0  0  0  0  0  0  0
   22.3736   48.0180   -4.6638 H   0  0  0  0  0  0  0  0  0  0  0  0
   22.8724   48.7789   -6.9264 H   0  0  0  0  0  0  0  0  0  0  0  0
   23.5550   47.2442   -7.3634 H   0  0  0  0  0  0  0  0  0  0  0  0
   21.3280   46.1599   -7.1918 H   0  0  0  0  0  0  0  0  0  0  0  0
   21.3352   47.4741   -8.3451 H   0  0  0  0  0  0  0  0  0  0  0  0
   18.9820   47.9183   -8.1149 H   0  0  0  0  0  0  0  0  0  0  0  0
   18.3361   48.2505   -6.5300 H   0  0  0  0  0  0  0  0  0  0  0  0
   19.4337   41.8505   -6.6918 H   0  0  0  0  0  0  0  0  0  0  0  0
   16.7454   42.2109   -7.8419 H   0  0  0  0  0  0  0  0  0  0  0  0
   16.8717   43.1885   -9.2800 H   0  0  0  0  0  0  0  0  0  0  0  0
   15.9600   43.7775   -7.8826 H   0  0  0  0  0  0  0  0  0  0  0  0
   17.4568   45.1702   -9.8019 H   0  0  0  0  0  0  0  0  0  0  0  0
   18.7911   46.2616   -9.5910 H   0  0  0  0  0  0  0  0  0  0  0  0
   17.1669   46.7122   -9.0362 H   0  0  0  0  0  0  0  0  0  0  0  0
   21.3013   43.2658   -3.8222 H   0  0  0  0  0  0  0  0  0  0  0  0
   20.3975   42.2120   -4.8854 H   0  0  0  0  0  0  0  0  0  0  0  0
   20.6465   43.8855   -5.3396 H   0  0  0  0  0  0  0  0  0  0  0  0
   22.7411   39.5231   -8.5737 H   0  0  0  0  0  0  0  0  0  0  0  0
  1  2  1  0  0  0  0
  1 40  1  0  0  0  0
  1 41  1  0  0  0  0
  1 42  1  0  0  0  0
  2  3  1  0  0  0  0
  2 43  1  0  0  0  0
  2 44  1  0  0  0  0
  3  4  1  0  0  0  0
  3 45  1  0  0  0  0
  3 46  1  0  0  0  0
  4  8  1  0  0  0  0
  4  5  2  0  0  0  0
  5  6  1  0  0  0  0
  5 47  1  0  0  0  0
  6  7  2  0  0  0  0
  6  9  1  0  0  0  0
  7  8  1  0  0  0  0
  8 35  1  0  0  0  0
  9 10  1  0  0  0  0
  9 48  1  0  0  0  0
  9 49  1  0  0  0  0
 10 11  1  0  0  0  0
 10 50  1  0  0  0  0
 11 12  1  0  0  0  0
 11 51  1  0  0  0  0
 11 52  1  0  0  0  0
 12 36  1  1  0  0  0
 12 13  1  0  0  0  0
 12 34  1  0  0  0  0
 13 37  1  6  0  0  0
 13 30  1  0  0  0  0
 13 14  1  0  0  0  0
 14 15  1  0  0  0  0
 14 53  1  0  0  0  0
 14 54  1  0  0  0  0
 15 38  1  1  0  0  0
 15 16  1  0  0  0  0
 15 33  1  0  0  0  0
 16 17  1  0  0  0  0
 16 55  1  0  0  0  0
 16 56  1  0  0  0  0
 17 18  1  0  0  0  0
 17 57  1  0  0  0  0
 17 58  1  0  0  0  0
 18 19  1  0  0  0  0
 18 59  1  0  0  0  0
 18 60  1  0  0  0  0
 19 20  1  0  0  0  0
 19 61  1  0  0  0  0
 19 62  1  0  0  0  0
 20 21  1  0  0  0  0
 20 63  1  0  0  0  0
 20 64  1  0  0  0  0
 21 22  1  0  0  0  0
 21 65  1  0  0  0  0
 21 66  1  0  0  0  0
 22 23  1  0  0  0  0
 23 24  1  0  0  0  0
 23 67  1  0  0  0  0
 23 68  1  0  0  0  0
 24 25  2  0  0  0  0
 24 26  1  0  0  0  0
 26 27  1  0  0  0  0
 26 32  1  0  0  0  0
 27 39  1  1  0  0  0
 27 28  1  0  0  0  0
 27 31  1  0  0  0  0
 28 29  2  0  0  0  0
 28 30  1  0  0  0  0
 30 69  1  0  0  0  0
 31 70  1  0  0  0  0
 31 71  1  0  0  0  0
 31 72  1  0  0  0  0
 32 73  1  0  0  0  0
 32 74  1  0  0  0  0
 32 75  1  0  0  0  0
 33 76  1  0  0  0  0
 33 77  1  0  0  0  0
 33 78  1  0  0  0  0
 34 79  1  0  0  0  0
M  END
