BACE_11.smi:1
 OpenBabel09281823033D
Structure written by MMmdl.
 81 83  0  0  1  0  0  0  0  0999 V2000
   21.9021   41.9103   -4.6936 C   0  0  0  0  0  0  0  0  0  0  0  0
   21.6742   41.7078   -6.2040 C   0  0  1  0  0  0  0  0  0  0  0  0
   20.9629   40.3894   -6.5782 C   0  0  0  0  0  0  0  0  0  0  0  0
   21.3301   39.3500   -6.0400 O   0  0  0  0  0  0  0  0  0  0  0  0
   20.0182   40.4074   -7.5359 N   0  0  0  0  0  0  0  0  0  0  0  0
   19.4263   39.2522   -8.2274 C   0  0  1  0  0  0  0  0  0  0  0  0
   20.4546   38.5806   -9.1669 C   0  0  0  0  0  0  0  0  0  0  0  0
   20.9324   39.5594  -10.2173 C   0  0  0  0  0  0  0  0  0  0  0  0
   20.2296   39.6822  -11.4304 C   0  0  0  0  0  0  0  0  0  0  0  0
   20.6024   40.6705  -12.3559 C   0  0  0  0  0  0  0  0  0  0  0  0
   21.6600   41.5495  -12.0555 C   0  0  0  0  0  0  0  0  0  0  0  0
   22.3760   41.4328  -10.8399 C   0  0  0  0  0  0  0  0  0  0  0  0
   22.0199   40.4117   -9.9437 C   0  0  0  0  0  0  0  0  0  0  0  0
   23.4062   42.2608  -10.4528 O   0  0  0  0  0  0  0  0  0  0  0  0
   23.7657   43.3422  -11.2973 C   0  0  0  0  0  0  0  0  0  0  0  0
   24.7821   44.2390  -10.5733 C   0  0  0  0  0  0  0  0  0  0  0  0
   24.1627   45.2087   -9.5441 C   0  0  0  0  0  0  0  0  0  0  0  0
   24.3497   44.8311   -8.0566 C   0  0  0  0  0  0  0  0  0  0  0  0
   23.5135   43.6495   -7.5123 C   0  0  0  0  0  0  0  0  0  0  0  0
   21.9919   43.8938   -7.4144 C   0  0  0  0  0  0  0  0  0  0  0  0
   21.5304   44.9499   -7.8528 O   0  0  0  0  0  0  0  0  0  0  0  0
   21.1900   42.9608   -6.8346 N   0  0  0  0  0  0  0  0  0  0  0  0
   19.7658   43.2835   -6.6687 C   0  0  0  0  0  0  0  0  0  0  0  0
   18.7048   38.2422   -7.3034 C   0  0  1  0  0  0  0  0  0  0  0  0
   17.7241   38.8333   -6.2867 C   0  0  0  0  0  0  0  0  0  0  0  0
   16.6991   39.7500   -6.8401 N   0  3  0  0  0  0  0  0  0  0  0  0
   15.6082   39.2246   -7.6805 C   0  0  0  0  0  0  0  0  0  0  0  0
   15.6356   40.0814   -8.9263 C   0  0  0  0  0  0  0  0  0  0  0  0
   16.3527   39.6548  -10.0601 C   0  0  0  0  0  0  0  0  0  0  0  0
   16.5843   40.5505  -11.1184 C   0  0  0  0  0  0  0  0  0  0  0  0
   16.0600   41.8549  -11.0698 C   0  0  0  0  0  0  0  0  0  0  0  0
   15.2814   42.2693   -9.9702 C   0  0  0  0  0  0  0  0  0  0  0  0
   15.0812   41.3781   -8.8944 C   0  0  0  0  0  0  0  0  0  0  0  0
   14.6992   43.6752   -9.9356 C   0  0  0  0  0  0  0  0  0  0  0  0
   15.3660   44.5296   -8.8470 C   0  0  0  0  0  0  0  0  0  0  0  0
   13.1695   43.6487   -9.7899 C   0  0  0  0  0  0  0  0  0  0  0  0
   18.0120   37.2643   -8.0519 O   0  0  0  0  0  0  0  0  0  0  0  0
   22.6638   41.4846   -6.5970 H   0  0  0  0  0  0  0  0  0  0  0  0
   18.6676   39.6917   -8.8677 H   0  0  0  0  0  0  0  0  0  0  0  0
   19.4754   37.7491   -6.7202 H   0  0  0  0  0  0  0  0  0  0  0  0
   22.3317   41.0215   -4.2294 H   0  0  0  0  0  0  0  0  0  0  0  0
   20.9662   42.1293   -4.1787 H   0  0  0  0  0  0  0  0  0  0  0  0
   22.5875   42.7362   -4.5021 H   0  0  0  0  0  0  0  0  0  0  0  0
   19.8066   41.3133   -7.9294 H   0  0  0  0  0  0  0  0  0  0  0  0
   21.3061   38.1910   -8.6064 H   0  0  0  0  0  0  0  0  0  0  0  0
   20.0093   37.7238   -9.6738 H   0  0  0  0  0  0  0  0  0  0  0  0
   19.3947   39.0308  -11.6467 H   0  0  0  0  0  0  0  0  0  0  0  0
   20.0689   40.7578  -13.2895 H   0  0  0  0  0  0  0  0  0  0  0  0
   21.9466   42.2811  -12.7921 H   0  0  0  0  0  0  0  0  0  0  0  0
   22.5628   40.3156   -9.0152 H   0  0  0  0  0  0  0  0  0  0  0  0
   24.2132   42.9497  -12.2111 H   0  0  0  0  0  0  0  0  0  0  0  0
   22.8948   43.9325  -11.5855 H   0  0  0  0  0  0  0  0  0  0  0  0
   25.5749   43.6391  -10.1255 H   0  0  0  0  0  0  0  0  0  0  0  0
   25.2726   44.8437  -11.3365 H   0  0  0  0  0  0  0  0  0  0  0  0
   24.6553   46.1724   -9.6794 H   0  0  0  0  0  0  0  0  0  0  0  0
   23.1174   45.4033   -9.7793 H   0  0  0  0  0  0  0  0  0  0  0  0
   25.4055   44.6240   -7.8788 H   0  0  0  0  0  0  0  0  0  0  0  0
   24.1296   45.7110   -7.4499 H   0  0  0  0  0  0  0  0  0  0  0  0
   23.7102   42.7575   -8.1025 H   0  0  0  0  0  0  0  0  0  0  0  0
   23.8780   43.4335   -6.5078 H   0  0  0  0  0  0  0  0  0  0  0  0
   19.2591   43.3093   -7.6339 H   0  0  0  0  0  0  0  0  0  0  0  0
   19.6337   44.2535   -6.1859 H   0  0  0  0  0  0  0  0  0  0  0  0
   19.2600   42.5548   -6.0402 H   0  0  0  0  0  0  0  0  0  0  0  0
   17.2600   38.0800   -5.6803 H   0  0  0  0  0  0  0  0  0  0  0  0
   18.3392   39.3500   -5.5613 H   0  0  0  0  0  0  0  0  0  0  0  0
   16.2635   40.2049   -6.0464 H   0  0  0  0  0  0  0  0  0  0  0  0
   15.7052   38.1661   -7.9152 H   0  0  0  0  0  0  0  0  0  0  0  0
   14.6579   39.3440   -7.1565 H   0  0  0  0  0  0  0  0  0  0  0  0
   16.7899   38.6667  -10.0939 H   0  0  0  0  0  0  0  0  0  0  0  0
   17.1859   40.2439  -11.9611 H   0  0  0  0  0  0  0  0  0  0  0  0
   16.2684   42.5376  -11.8773 H   0  0  0  0  0  0  0  0  0  0  0  0
   14.5355   41.7024   -8.0193 H   0  0  0  0  0  0  0  0  0  0  0  0
   14.9197   44.1464  -10.8938 H   0  0  0  0  0  0  0  0  0  0  0  0
   16.4442   44.5860   -9.0009 H   0  0  0  0  0  0  0  0  0  0  0  0
   15.1984   44.1131   -7.8545 H   0  0  0  0  0  0  0  0  0  0  0  0
   14.9787   45.5478   -8.8486 H   0  0  0  0  0  0  0  0  0  0  0  0
   12.7109   43.0556  -10.5817 H   0  0  0  0  0  0  0  0  0  0  0  0
   12.7475   44.6503   -9.8433 H   0  0  0  0  0  0  0  0  0  0  0  0
   12.8632   43.2172   -8.8379 H   0  0  0  0  0  0  0  0  0  0  0  0
   17.4774   36.7506   -7.4504 H   0  0  0  0  0  0  0  0  0  0  0  0
   17.1741   40.4673   -7.3655 H   0  0  0  0  0  0  0  0  0  0  0  0
  1  2  1  0  0  0  0
  1 41  1  0  0  0  0
  1 42  1  0  0  0  0
  1 43  1  0  0  0  0
  2 38  1  6  0  0  0
  2 22  1  0  0  0  0
  2  3  1  0  0  0  0
  3  4  2  0  0  0  0
  3  5  1  0  0  0  0
  5  6  1  0  0  0  0
  5 44  1  0  0  0  0
  6 39  1  6  0  0  0
  6  7  1  0  0  0  0
  6 24  1  0  0  0  0
  7  8  1  0  0  0  0
  7 45  1  0  0  0  0
  7 46  1  0  0  0  0
  8 13  1  0  0  0  0
  8  9  2  0  0  0  0
  9 10  1  0  0  0  0
  9 47  1  0  0  0  0
 10 11  2  0  0  0  0
 10 48  1  0  0  0  0
 11 12  1  0  0  0  0
 11 49  1  0  0  0  0
 12 13  2  0  0  0  0
 12 14  1  0  0  0  0
 13 50  1  0  0  0  0
 14 15  1  0  0  0  0
 15 16  1  0  0  0  0
 15 51  1  0  0  0  0
 15 52  1  0  0  0  0
 16 17  1  0  0  0  0
 16 53  1  0  0  0  0
 16 54  1  0  0  0  0
 17 18  1  0  0  0  0
 17 55  1  0  0  0  0
 17 56  1  0  0  0  0
 18 19  1  0  0  0  0
 18 57  1  0  0  0  0
 18 58  1  0  0  0  0
 19 20  1  0  0  0  0
 19 59  1  0  0  0  0
 19 60  1  0  0  0  0
 20 21  2  0  0  0  0
 20 22  1  0  0  0  0
 22 23  1  0  0  0  0
 23 61  1  0  0  0  0
 23 62  1  0  0  0  0
 23 63  1  0  0  0  0
 24 40  1  1  0  0  0
 24 25  1  0  0  0  0
 24 37  1  0  0  0  0
 25 26  1  0  0  0  0
 25 64  1  0  0  0  0
 25 65  1  0  0  0  0
 26 27  1  0  0  0  0
 26 66  1  0  0  0  0
 26 81  1  0  0  0  0
 27 28  1  0  0  0  0
 27 67  1  0  0  0  0
 27 68  1  0  0  0  0
 28 33  1  0  0  0  0
 28 29  2  0  0  0  0
 29 30  1  0  0  0  0
 29 69  1  0  0  0  0
 30 31  2  0  0  0  0
 30 70  1  0  0  0  0
 31 32  1  0  0  0  0
 31 71  1  0  0  0  0
 32 33  2  0  0  0  0
 32 34  1  0  0  0  0
 33 72  1  0  0  0  0
 34 35  1  0  0  0  0
 34 36  1  0  0  0  0
 34 73  1  0  0  0  0
 35 74  1  0  0  0  0
 35 75  1  0  0  0  0
 35 76  1  0  0  0  0
 36 77  1  0  0  0  0
 36 78  1  0  0  0  0
 36 79  1  0  0  0  0
 37 80  1  0  0  0  0
M  CHG  1  26   1
M  END
