BACE_13.smi:1
 OpenBabel09281823033D
Structure written by MMmdl.
 76 79  0  0  1  0  0  0  0  0999 V2000
   20.1604   49.6115   -6.5908 C   0  0  0  0  0  0  0  0  0  0  0  0
   21.5156   49.2112   -6.7554 O   0  0  0  0  0  0  0  0  0  0  0  0
   21.7467   48.4287   -7.9239 C   0  0  0  0  0  0  0  0  0  0  0  0
   21.2205   47.0017   -7.8388 C   0  0  0  0  0  0  0  0  0  0  0  0
   20.9820   46.2752   -9.0223 C   0  0  0  0  0  0  0  0  0  0  0  0
   20.5090   44.9443   -8.9698 C   0  0  0  0  0  0  0  0  0  0  0  0
   20.2456   44.3578   -7.7137 C   0  0  0  0  0  0  0  0  0  0  0  0
   20.4922   45.0729   -6.5141 C   0  0  0  0  0  0  0  0  0  0  0  0
   20.9943   46.3872   -6.5887 C   0  0  0  0  0  0  0  0  0  0  0  0
   20.2509   44.5346   -5.2400 N   0  0  0  0  0  0  0  0  0  0  0  0
   20.0583   43.1080   -5.0541 C   0  0  0  0  0  0  0  0  0  0  0  0
   21.3569   42.3161   -5.2553 C   0  0  0  0  0  0  0  0  0  0  0  0
   21.1566   40.8073   -5.0632 C   0  0  0  0  0  0  0  0  0  0  0  0
   22.4187   39.9990   -5.4168 C   0  0  0  0  0  0  0  0  0  0  0  0
   22.7951   40.1745   -6.7818 O   0  0  0  0  0  0  0  0  0  0  0  0
   21.9611   39.6954   -7.7703 C   0  0  0  0  0  0  0  0  0  0  0  0
   21.0763   38.6003   -7.6080 C   0  0  0  0  0  0  0  0  0  0  0  0
   20.2590   38.1794   -8.6750 C   0  0  0  0  0  0  0  0  0  0  0  0
   20.3012   38.8573   -9.9048 C   0  0  0  0  0  0  0  0  0  0  0  0
   21.1497   39.9726  -10.0677 C   0  0  0  0  0  0  0  0  0  0  0  0
   21.9999   40.3592   -9.0114 C   0  0  0  0  0  0  0  0  0  0  0  0
   21.1563   40.7344  -11.3802 C   0  0  0  0  0  0  0  0  0  0  0  0
   20.2941   42.0281  -11.4354 C   0  0  2  0  0  0  0  0  0  0  0  0
   20.4699   42.8847  -10.2563 N   0  0  0  0  0  0  0  0  0  0  0  0
   20.2251   44.2080  -10.2473 C   0  0  0  0  0  0  0  0  0  0  0  0
   19.8159   44.8138  -11.2398 O   0  0  0  0  0  0  0  0  0  0  0  0
   18.7926   41.7942  -11.8138 C   0  0  1  0  0  0  0  0  0  0  0  0
   17.7333   41.8568  -10.6762 C   0  0  1  0  0  0  0  0  0  0  0  0
   16.2985   41.6598  -11.2267 C   0  0  0  0  0  0  0  0  0  0  0  0
   15.3277   41.5483  -10.1843 O   0  0  0  0  0  0  0  0  0  0  0  0
   15.6056   40.5145   -9.2362 C   0  0  2  0  0  0  0  0  0  0  0  0
   16.9883   40.7828   -8.6192 C   0  0  0  0  0  0  0  0  0  0  0  0
   18.0044   40.8390   -9.6666 N   0  0  0  0  0  0  0  0  0  0  0  0
   15.4791   39.1033   -9.8489 C   0  0  0  0  0  0  0  0  0  0  0  0
   15.7451   38.1254   -8.8588 O   0  0  0  0  0  0  0  0  0  0  0  0
   16.0606   36.8569   -9.4044 C   0  0  0  0  0  0  0  0  0  0  0  0
   18.4599   42.7654  -12.7963 O   0  0  0  0  0  0  0  0  0  0  0  0
   20.7554   42.5496  -12.2710 H   0  0  0  0  0  0  0  0  0  0  0  0
   18.7014   40.8283  -12.3137 H   0  0  0  0  0  0  0  0  0  0  0  0
   17.7616   42.8371  -10.1993 H   0  0  0  0  0  0  0  0  0  0  0  0
   14.8576   40.5993   -8.4455 H   0  0  0  0  0  0  0  0  0  0  0  0
   20.0696   50.1757   -5.6621 H   0  0  0  0  0  0  0  0  0  0  0  0
   19.4827   48.7592   -6.5307 H   0  0  0  0  0  0  0  0  0  0  0  0
   19.8378   50.2542   -7.4125 H   0  0  0  0  0  0  0  0  0  0  0  0
   22.8253   48.3706   -8.0775 H   0  0  0  0  0  0  0  0  0  0  0  0
   21.3357   48.9334   -8.8014 H   0  0  0  0  0  0  0  0  0  0  0  0
   21.1682   46.7412   -9.9788 H   0  0  0  0  0  0  0  0  0  0  0  0
   19.8479   43.3550   -7.6789 H   0  0  0  0  0  0  0  0  0  0  0  0
   21.1930   46.9309   -5.6767 H   0  0  0  0  0  0  0  0  0  0  0  0
   20.5557   45.0422   -4.4146 H   0  0  0  0  0  0  0  0  0  0  0  0
   19.2692   42.7584   -5.7209 H   0  0  0  0  0  0  0  0  0  0  0  0
   19.6876   42.9448   -4.0412 H   0  0  0  0  0  0  0  0  0  0  0  0
   22.1192   42.6753   -4.5617 H   0  0  0  0  0  0  0  0  0  0  0  0
   21.7434   42.4953   -6.2584 H   0  0  0  0  0  0  0  0  0  0  0  0
   20.3122   40.4687   -5.6637 H   0  0  0  0  0  0  0  0  0  0  0  0
   20.8811   40.6084   -4.0292 H   0  0  0  0  0  0  0  0  0  0  0  0
   22.2958   38.9499   -5.1664 H   0  0  0  0  0  0  0  0  0  0  0  0
   23.2482   40.3473   -4.7995 H   0  0  0  0  0  0  0  0  0  0  0  0
   21.0177   38.0614   -6.6742 H   0  0  0  0  0  0  0  0  0  0  0  0
   19.5822   37.3499   -8.5434 H   0  0  0  0  0  0  0  0  0  0  0  0
   19.6531   38.5369  -10.7109 H   0  0  0  0  0  0  0  0  0  0  0  0
   22.6715   41.1935   -9.1399 H   0  0  0  0  0  0  0  0  0  0  0  0
   20.8868   40.0652  -12.1966 H   0  0  0  0  0  0  0  0  0  0  0  0
   22.1973   41.0052  -11.5749 H   0  0  0  0  0  0  0  0  0  0  0  0
   20.8386   42.4540   -9.4219 H   0  0  0  0  0  0  0  0  0  0  0  0
   16.2468   40.8016  -11.8977 H   0  0  0  0  0  0  0  0  0  0  0  0
   16.0183   42.5270  -11.8247 H   0  0  0  0  0  0  0  0  0  0  0  0
   17.2348   40.0005   -7.9005 H   0  0  0  0  0  0  0  0  0  0  0  0
   16.9685   41.7184   -8.0587 H   0  0  0  0  0  0  0  0  0  0  0  0
   18.9238   40.9696   -9.2554 H   0  0  0  0  0  0  0  0  0  0  0  0
   14.4746   38.9519  -10.2479 H   0  0  0  0  0  0  0  0  0  0  0  0
   16.1795   38.9785  -10.6738 H   0  0  0  0  0  0  0  0  0  0  0  0
   16.2309   36.1398   -8.6012 H   0  0  0  0  0  0  0  0  0  0  0  0
   16.9724   36.9031  -10.0032 H   0  0  0  0  0  0  0  0  0  0  0  0
   15.2513   36.4809  -10.0340 H   0  0  0  0  0  0  0  0  0  0  0  0
   18.6832   43.6149  -12.4350 H   0  0  0  0  0  0  0  0  0  0  0  0
  1  2  1  0  0  0  0
  1 42  1  0  0  0  0
  1 43  1  0  0  0  0
  1 44  1  0  0  0  0
  2  3  1  0  0  0  0
  3  4  1  0  0  0  0
  3 45  1  0  0  0  0
  3 46  1  0  0  0  0
  4  9  1  0  0  0  0
  4  5  2  0  0  0  0
  5  6  1  0  0  0  0
  5 47  1  0  0  0  0
  6 25  1  0  0  0  0
  6  7  2  0  0  0  0
  7  8  1  0  0  0  0
  7 48  1  0  0  0  0
  8  9  2  0  0  0  0
  8 10  1  0  0  0  0
  9 49  1  0  0  0  0
 10 11  1  0  0  0  0
 10 50  1  0  0  0  0
 11 12  1  0  0  0  0
 11 51  1  0  0  0  0
 11 52  1  0  0  0  0
 12 13  1  0  0  0  0
 12 53  1  0  0  0  0
 12 54  1  0  0  0  0
 13 14  1  0  0  0  0
 13 55  1  0  0  0  0
 13 56  1  0  0  0  0
 14 15  1  0  0  0  0
 14 57  1  0  0  0  0
 14 58  1  0  0  0  0
 15 16  1  0  0  0  0
 16 21  1  0  0  0  0
 16 17  2  0  0  0  0
 17 18  1  0  0  0  0
 17 59  1  0  0  0  0
 18 19  2  0  0  0  0
 18 60  1  0  0  0  0
 19 20  1  0  0  0  0
 19 61  1  0  0  0  0
 20 21  2  0  0  0  0
 20 22  1  0  0  0  0
 21 62  1  0  0  0  0
 22 23  1  0  0  0  0
 22 63  1  0  0  0  0
 22 64  1  0  0  0  0
 23 38  1  6  0  0  0
 23 24  1  0  0  0  0
 23 27  1  0  0  0  0
 24 25  1  0  0  0  0
 24 65  1  0  0  0  0
 25 26  2  0  0  0  0
 27 39  1  6  0  0  0
 27 28  1  0  0  0  0
 27 37  1  0  0  0  0
 28 40  1  1  0  0  0
 28 33  1  0  0  0  0
 28 29  1  0  0  0  0
 29 30  1  0  0  0  0
 29 66  1  0  0  0  0
 29 67  1  0  0  0  0
 30 31  1  0  0  0  0
 31 41  1  1  0  0  0
 31 32  1  0  0  0  0
 31 34  1  0  0  0  0
 32 33  1  0  0  0  0
 32 68  1  0  0  0  0
 32 69  1  0  0  0  0
 33 70  1  0  0  0  0
 34 35  1  0  0  0  0
 34 71  1  0  0  0  0
 34 72  1  0  0  0  0
 35 36  1  0  0  0  0
 36 73  1  0  0  0  0
 36 74  1  0  0  0  0
 36 75  1  0  0  0  0
 37 76  1  0  0  0  0
M  END
