BACE_13.smi:1
 OpenBabel09281823033D
Structure written by MMmdl.
 77 80  0  0  1  0  0  0  0  0999 V2000
   23.5559   42.3776   -4.2118 C   0  0  0  0  0  0  0  0  0  0  0  0
   22.4979   42.8772   -3.4080 O   0  0  0  0  0  0  0  0  0  0  0  0
   21.3434   42.0533   -3.4252 C   0  0  0  0  0  0  0  0  0  0  0  0
   20.8611   41.7670   -4.8337 C   0  0  0  0  0  0  0  0  0  0  0  0
   20.1004   42.7272   -5.5297 C   0  0  0  0  0  0  0  0  0  0  0  0
   19.6610   42.4568   -6.8412 C   0  0  0  0  0  0  0  0  0  0  0  0
   20.0850   41.2656   -7.4835 C   0  0  0  0  0  0  0  0  0  0  0  0
   20.8641   40.3037   -6.7940 C   0  0  0  0  0  0  0  0  0  0  0  0
   21.2285   40.5581   -5.4598 C   0  0  0  0  0  0  0  0  0  0  0  0
   21.2937   39.0970   -7.3724 N   0  0  0  0  0  0  0  0  0  0  0  0
   20.6798   38.6081   -8.5979 C   0  0  0  0  0  0  0  0  0  0  0  0
   21.3487   39.1654   -9.8598 C   0  0  0  0  0  0  0  0  0  0  0  0
   20.3663   39.1603  -11.0405 C   0  0  0  0  0  0  0  0  0  0  0  0
   20.9179   39.8197  -12.3199 C   0  0  0  0  0  0  0  0  0  0  0  0
   21.5966   41.0428  -12.0636 O   0  0  0  0  0  0  0  0  0  0  0  0
   20.9022   42.1511  -11.6383 C   0  0  0  0  0  0  0  0  0  0  0  0
   21.6818   43.2577  -11.2448 C   0  0  0  0  0  0  0  0  0  0  0  0
   21.0771   44.4546  -10.8208 C   0  0  0  0  0  0  0  0  0  0  0  0
   19.6764   44.5390  -10.7440 C   0  0  0  0  0  0  0  0  0  0  0  0
   18.8809   43.4257  -11.0807 C   0  0  0  0  0  0  0  0  0  0  0  0
   19.4901   42.2495  -11.5687 C   0  0  0  0  0  0  0  0  0  0  0  0
   17.3804   43.4688  -10.8244 C   0  0  0  0  0  0  0  0  0  0  0  0
   17.0253   43.6363   -9.3214 C   0  0  2  0  0  0  0  0  0  0  0  0
   17.9686   42.8921   -8.4864 N   0  0  0  0  0  0  0  0  0  0  0  0
   18.7220   43.4175   -7.5077 C   0  0  0  0  0  0  0  0  0  0  0  0
   18.6081   44.5785   -7.1115 O   0  0  0  0  0  0  0  0  0  0  0  0
   15.5476   43.2939   -8.9806 C   0  0  1  0  0  0  0  0  0  0  0  0
   15.1506   41.8359   -8.5813 C   0  0  1  0  0  0  0  0  0  0  0  0
   15.5626   40.7501   -9.5991 C   0  0  0  0  0  0  0  0  0  0  0  0
   15.0822   39.4727   -9.1875 O   0  0  0  0  0  0  0  0  0  0  0  0
   15.5262   39.0360   -7.8981 C   0  0  2  0  0  0  0  0  0  0  0  0
   15.1417   40.0908   -6.8480 C   0  0  0  0  0  0  0  0  0  0  0  0
   15.6178   41.4361   -7.2352 N   0  3  0  0  0  0  0  0  0  0  0  0
   17.0332   38.7147   -7.8847 C   0  0  0  0  0  0  0  0  0  0  0  0
   17.4055   37.8967   -8.9862 O   0  0  0  0  0  0  0  0  0  0  0  0
   17.1375   36.5206   -8.7849 C   0  0  0  0  0  0  0  0  0  0  0  0
   15.0662   44.2443   -8.0414 O   0  0  0  0  0  0  0  0  0  0  0  0
   17.1711   44.7024   -9.1360 H   0  0  0  0  0  0  0  0  0  0  0  0
   14.9728   43.5198   -9.8797 H   0  0  0  0  0  0  0  0  0  0  0  0
   14.0600   41.8224   -8.5407 H   0  0  0  0  0  0  0  0  0  0  0  0
   14.9810   38.1205   -7.6686 H   0  0  0  0  0  0  0  0  0  0  0  0
   24.4598   42.9467   -4.0403 H   0  0  0  0  0  0  0  0  0  0  0  0
   23.3341   42.4793   -5.2744 H   0  0  0  0  0  0  0  0  0  0  0  0
   23.7664   41.3271   -3.9984 H   0  0  0  0  0  0  0  0  0  0  0  0
   20.5535   42.5523   -2.8628 H   0  0  0  0  0  0  0  0  0  0  0  0
   21.5528   41.1191   -2.9014 H   0  0  0  0  0  0  0  0  0  0  0  0
   19.8174   43.6411   -5.0261 H   0  0  0  0  0  0  0  0  0  0  0  0
   19.7976   41.0809   -8.5083 H   0  0  0  0  0  0  0  0  0  0  0  0
   21.8242   39.8369   -4.9182 H   0  0  0  0  0  0  0  0  0  0  0  0
   21.7617   38.4196   -6.7857 H   0  0  0  0  0  0  0  0  0  0  0  0
   19.6266   38.8716   -8.5815 H   0  0  0  0  0  0  0  0  0  0  0  0
   20.7074   37.5204   -8.6255 H   0  0  0  0  0  0  0  0  0  0  0  0
   22.2507   38.5973  -10.0938 H   0  0  0  0  0  0  0  0  0  0  0  0
   21.6766   40.1890   -9.6760 H   0  0  0  0  0  0  0  0  0  0  0  0
   19.4522   39.6628  -10.7301 H   0  0  0  0  0  0  0  0  0  0  0  0
   20.0589   38.1396  -11.2641 H   0  0  0  0  0  0  0  0  0  0  0  0
   20.1322   39.9608  -13.0632 H   0  0  0  0  0  0  0  0  0  0  0  0
   21.6470   39.1504  -12.7792 H   0  0  0  0  0  0  0  0  0  0  0  0
   22.7594   43.1897  -11.2901 H   0  0  0  0  0  0  0  0  0  0  0  0
   21.6886   45.2984  -10.5353 H   0  0  0  0  0  0  0  0  0  0  0  0
   19.2198   45.4464  -10.3760 H   0  0  0  0  0  0  0  0  0  0  0  0
   18.8595   41.4215  -11.8551 H   0  0  0  0  0  0  0  0  0  0  0  0
   16.9370   42.5563  -11.2202 H   0  0  0  0  0  0  0  0  0  0  0  0
   16.9484   44.2847  -11.4023 H   0  0  0  0  0  0  0  0  0  0  0  0
   18.1694   41.9389   -8.7523 H   0  0  0  0  0  0  0  0  0  0  0  0
   16.6421   40.7145   -9.7384 H   0  0  0  0  0  0  0  0  0  0  0  0
   15.1296   40.9731  -10.5749 H   0  0  0  0  0  0  0  0  0  0  0  0
   15.5238   39.8247   -5.8615 H   0  0  0  0  0  0  0  0  0  0  0  0
   14.0598   40.1334   -6.7557 H   0  0  0  0  0  0  0  0  0  0  0  0
   16.6258   41.4589   -7.1739 H   0  0  0  0  0  0  0  0  0  0  0  0
   17.6043   39.6385   -7.9533 H   0  0  0  0  0  0  0  0  0  0  0  0
   17.3278   38.2583   -6.9380 H   0  0  0  0  0  0  0  0  0  0  0  0
   17.4919   35.9489   -9.6396 H   0  0  0  0  0  0  0  0  0  0  0  0
   16.0712   36.3294   -8.6687 H   0  0  0  0  0  0  0  0  0  0  0  0
   17.6595   36.1483   -7.9039 H   0  0  0  0  0  0  0  0  0  0  0  0
   15.5057   44.1296   -7.2013 H   0  0  0  0  0  0  0  0  0  0  0  0
   15.2503   42.0817   -6.5376 H   0  0  0  0  0  0  0  0  0  0  0  0
  1  2  1  0  0  0  0
  1 42  1  0  0  0  0
  1 43  1  0  0  0  0
  1 44  1  0  0  0  0
  2  3  1  0  0  0  0
  3  4  1  0  0  0  0
  3 45  1  0  0  0  0
  3 46  1  0  0  0  0
  4  9  1  0  0  0  0
  4  5  2  0  0  0  0
  5  6  1  0  0  0  0
  5 47  1  0  0  0  0
  6 25  1  0  0  0  0
  6  7  2  0  0  0  0
  7  8  1  0  0  0  0
  7 48  1  0  0  0  0
  8  9  2  0  0  0  0
  8 10  1  0  0  0  0
  9 49  1  0  0  0  0
 10 11  1  0  0  0  0
 10 50  1  0  0  0  0
 11 12  1  0  0  0  0
 11 51  1  0  0  0  0
 11 52  1  0  0  0  0
 12 13  1  0  0  0  0
 12 53  1  0  0  0  0
 12 54  1  0  0  0  0
 13 14  1  0  0  0  0
 13 55  1  0  0  0  0
 13 56  1  0  0  0  0
 14 15  1  0  0  0  0
 14 57  1  0  0  0  0
 14 58  1  0  0  0  0
 15 16  1  0  0  0  0
 16 21  1  0  0  0  0
 16 17  2  0  0  0  0
 17 18  1  0  0  0  0
 17 59  1  0  0  0  0
 18 19  2  0  0  0  0
 18 60  1  0  0  0  0
 19 20  1  0  0  0  0
 19 61  1  0  0  0  0
 20 21  2  0  0  0  0
 20 22  1  0  0  0  0
 21 62  1  0  0  0  0
 22 23  1  0  0  0  0
 22 63  1  0  0  0  0
 22 64  1  0  0  0  0
 23 38  1  1  0  0  0
 23 24  1  0  0  0  0
 23 27  1  0  0  0  0
 24 25  1  0  0  0  0
 24 65  1  0  0  0  0
 25 26  2  0  0  0  0
 27 39  1  6  0  0  0
 27 28  1  0  0  0  0
 27 37  1  0  0  0  0
 28 40  1  1  0  0  0
 28 33  1  0  0  0  0
 28 29  1  0  0  0  0
 29 30  1  0  0  0  0
 29 66  1  0  0  0  0
 29 67  1  0  0  0  0
 30 31  1  0  0  0  0
 31 41  1  1  0  0  0
 31 32  1  0  0  0  0
 31 34  1  0  0  0  0
 32 33  1  0  0  0  0
 32 68  1  0  0  0  0
 32 69  1  0  0  0  0
 33 70  1  0  0  0  0
 33 77  1  0  0  0  0
 34 35  1  0  0  0  0
 34 71  1  0  0  0  0
 34 72  1  0  0  0  0
 35 36  1  0  0  0  0
 36 73  1  0  0  0  0
 36 74  1  0  0  0  0
 36 75  1  0  0  0  0
 37 76  1  0  0  0  0
M  CHG  1  33   1
M  END
