BACE_17.smi:1
 OpenBabel09281823033D
Structure written by MMmdl.
 62 64  0  0  1  0  0  0  0  0999 V2000
   17.8943   45.9115   -7.3715 C   0  0  0  0  0  0  0  0  0  0  0  0
   18.6794   47.0076   -6.7950 N   0  0  0  0  0  0  0  0  0  0  0  0
   17.9090   48.2285   -6.5464 C   0  0  0  0  0  0  0  0  0  0  0  0
   19.9913   46.9200   -6.4545 C   0  0  0  0  0  0  0  0  0  0  0  0
   20.5783   47.7994   -5.8230 O   0  0  0  0  0  0  0  0  0  0  0  0
   20.7556   45.6869   -6.8492 C   0  0  0  0  0  0  0  0  0  0  0  0
   21.4613   44.9613   -5.8645 C   0  0  0  0  0  0  0  0  0  0  0  0
   20.8168   45.2621   -8.1972 C   0  0  0  0  0  0  0  0  0  0  0  0
   21.5291   44.0980   -8.5482 C   0  0  0  0  0  0  0  0  0  0  0  0
   22.2486   43.4014   -7.5561 C   0  0  0  0  0  0  0  0  0  0  0  0
   22.1999   43.8066   -6.2119 C   0  0  0  0  0  0  0  0  0  0  0  0
   21.5145   43.5899   -9.9563 C   0  0  0  0  0  0  0  0  0  0  0  0
   21.5637   44.3497  -10.9224 O   0  0  0  0  0  0  0  0  0  0  0  0
   21.3696   42.2611  -10.0428 N   0  0  0  0  0  0  0  0  0  0  0  0
   21.3224   41.4480  -11.2497 C   0  0  2  0  0  0  0  0  0  0  0  0
   20.0005   41.6895  -12.0381 C   0  0  1  0  0  0  0  0  0  0  0  0
   20.0598   40.9505  -13.2393 O   0  0  0  0  0  0  0  0  0  0  0  0
   18.6714   41.3909  -11.3077 C   0  0  0  0  0  0  0  0  0  0  0  0
   17.6341   42.2381  -11.7675 O   0  0  0  0  0  0  0  0  0  0  0  0
   21.6566   39.9694  -10.9005 C   0  0  0  0  0  0  0  0  0  0  0  0
   20.8098   39.3587   -9.7885 C   0  0  0  0  0  0  0  0  0  0  0  0
   21.1057   39.6224   -8.4308 C   0  0  0  0  0  0  0  0  0  0  0  0
   20.2778   39.1167   -7.3961 C   0  0  0  0  0  0  0  0  0  0  0  0
   19.1663   38.3217   -7.7422 C   0  0  0  0  0  0  0  0  0  0  0  0
   18.8929   38.0170   -9.0887 C   0  0  0  0  0  0  0  0  0  0  0  0
   19.7201   38.5237  -10.1089 C   0  0  0  0  0  0  0  0  0  0  0  0
   20.4853   39.3501   -6.0534 O   0  0  0  0  0  0  0  0  0  0  0  0
   21.4863   40.2825   -5.6746 C   0  0  0  0  0  0  0  0  0  0  0  0
   21.4690   40.4344   -4.1468 C   0  0  0  0  0  0  0  0  0  0  0  0
   22.5129   41.4141   -3.5761 C   0  0  0  0  0  0  0  0  0  0  0  0
   22.3261   42.8789   -4.0082 C   0  0  0  0  0  0  0  0  0  0  0  0
   22.8848   43.0331   -5.3070 O   0  0  0  0  0  0  0  0  0  0  0  0
   22.1348   41.7941  -11.8945 H   0  0  0  0  0  0  0  0  0  0  0  0
   19.9858   42.7405  -12.3151 H   0  0  0  0  0  0  0  0  0  0  0  0
   18.0729   45.8312   -8.4437 H   0  0  0  0  0  0  0  0  0  0  0  0
   16.8237   46.0666   -7.2417 H   0  0  0  0  0  0  0  0  0  0  0  0
   18.1353   44.9530   -6.9086 H   0  0  0  0  0  0  0  0  0  0  0  0
   17.3105   48.1256   -5.6417 H   0  0  0  0  0  0  0  0  0  0  0  0
   17.2346   48.4273   -7.3786 H   0  0  0  0  0  0  0  0  0  0  0  0
   18.5350   49.1153   -6.4367 H   0  0  0  0  0  0  0  0  0  0  0  0
   21.4336   45.2983   -4.8400 H   0  0  0  0  0  0  0  0  0  0  0  0
   20.2950   45.8153   -8.9643 H   0  0  0  0  0  0  0  0  0  0  0  0
   22.8223   42.5208   -7.8074 H   0  0  0  0  0  0  0  0  0  0  0  0
   21.2824   41.7588   -9.1730 H   0  0  0  0  0  0  0  0  0  0  0  0
   19.9341   40.0357  -13.0316 H   0  0  0  0  0  0  0  0  0  0  0  0
   18.3526   40.3623  -11.4496 H   0  0  0  0  0  0  0  0  0  0  0  0
   18.7719   41.5531  -10.2341 H   0  0  0  0  0  0  0  0  0  0  0  0
   16.8828   42.0937  -11.2135 H   0  0  0  0  0  0  0  0  0  0  0  0
   21.6175   39.3424  -11.7916 H   0  0  0  0  0  0  0  0  0  0  0  0
   22.6969   39.9204  -10.5770 H   0  0  0  0  0  0  0  0  0  0  0  0
   21.9699   40.2263   -8.2026 H   0  0  0  0  0  0  0  0  0  0  0  0
   18.5235   37.9309   -6.9639 H   0  0  0  0  0  0  0  0  0  0  0  0
   18.0456   37.3941   -9.3353 H   0  0  0  0  0  0  0  0  0  0  0  0
   19.4932   38.2835  -11.1394 H   0  0  0  0  0  0  0  0  0  0  0  0
   22.4696   39.9455   -6.0048 H   0  0  0  0  0  0  0  0  0  0  0  0
   21.2638   41.2361   -6.1473 H   0  0  0  0  0  0  0  0  0  0  0  0
   20.4701   40.7367   -3.8255 H   0  0  0  0  0  0  0  0  0  0  0  0
   21.6512   39.4524   -3.7066 H   0  0  0  0  0  0  0  0  0  0  0  0
   22.4464   41.3750   -2.4889 H   0  0  0  0  0  0  0  0  0  0  0  0
   23.5197   41.0787   -3.8248 H   0  0  0  0  0  0  0  0  0  0  0  0
   21.2684   43.1384   -3.9527 H   0  0  0  0  0  0  0  0  0  0  0  0
   22.8601   43.5418   -3.3292 H   0  0  0  0  0  0  0  0  0  0  0  0
  1  2  1  0  0  0  0
  1 35  1  0  0  0  0
  1 36  1  0  0  0  0
  1 37  1  0  0  0  0
  2  3  1  0  0  0  0
  2  4  1  0  0  0  0
  3 38  1  0  0  0  0
  3 39  1  0  0  0  0
  3 40  1  0  0  0  0
  4  5  2  0  0  0  0
  4  6  1  0  0  0  0
  6  7  1  0  0  0  0
  6  8  2  0  0  0  0
  7 11  2  0  0  0  0
  7 41  1  0  0  0  0
  8  9  1  0  0  0  0
  8 42  1  0  0  0  0
  9 10  2  0  0  0  0
  9 12  1  0  0  0  0
 10 11  1  0  0  0  0
 10 43  1  0  0  0  0
 11 32  1  0  0  0  0
 12 13  2  0  0  0  0
 12 14  1  0  0  0  0
 14 15  1  0  0  0  0
 14 44  1  0  0  0  0
 15 33  1  6  0  0  0
 15 16  1  0  0  0  0
 15 20  1  0  0  0  0
 16 34  1  6  0  0  0
 16 17  1  0  0  0  0
 16 18  1  0  0  0  0
 17 45  1  0  0  0  0
 18 19  1  0  0  0  0
 18 46  1  0  0  0  0
 18 47  1  0  0  0  0
 19 48  1  0  0  0  0
 20 21  1  0  0  0  0
 20 49  1  0  0  0  0
 20 50  1  0  0  0  0
 21 26  1  0  0  0  0
 21 22  2  0  0  0  0
 22 23  1  0  0  0  0
 22 51  1  0  0  0  0
 23 24  2  0  0  0  0
 23 27  1  0  0  0  0
 24 25  1  0  0  0  0
 24 52  1  0  0  0  0
 25 26  2  0  0  0  0
 25 53  1  0  0  0  0
 26 54  1  0  0  0  0
 27 28  1  0  0  0  0
 28 29  1  0  0  0  0
 28 55  1  0  0  0  0
 28 56  1  0  0  0  0
 29 30  1  0  0  0  0
 29 57  1  0  0  0  0
 29 58  1  0  0  0  0
 30 31  1  0  0  0  0
 30 59  1  0  0  0  0
 30 60  1  0  0  0  0
 31 32  1  0  0  0  0
 31 61  1  0  0  0  0
 31 62  1  0  0  0  0
M  END
