BACE_19.smi:1
 OpenBabel09281823033D
Structure written by MMmdl.
 76 77  0  0  1  0  0  0  0  0999 V2000
   21.7242   40.7931   -3.4041 C   0  0  0  0  0  0  0  0  0  0  0  0
   20.9777   41.1958   -4.6845 C   0  0  0  0  0  0  0  0  0  0  0  0
   21.9298   41.5069   -5.8514 C   0  0  0  0  0  0  0  0  0  0  0  0
   21.9336   40.4576   -6.9774 C   0  0  0  0  0  0  0  0  0  0  0  0
   22.8982   40.7554   -8.0249 N   0  0  0  0  0  0  0  0  0  0  0  0
   23.5063   41.9280   -8.2399 C   0  0  0  0  0  0  0  0  0  0  0  0
   23.3535   42.9051   -7.5090 O   0  0  0  0  0  0  0  0  0  0  0  0
   24.3855   41.9961   -9.4939 C   0  0  2  0  0  0  0  0  0  0  0  0
   25.2972   43.2384   -9.4503 C   0  0  0  0  0  0  0  0  0  0  0  0
   23.5788   41.8078  -10.8073 C   0  0  0  0  0  0  0  0  0  0  0  0
   22.1622   42.4445  -10.8479 C   0  0  1  0  0  0  0  0  0  0  0  0
   21.0080   41.4926  -10.4033 C   0  0  2  0  0  0  0  0  0  0  0  0
   20.9088   40.1727  -11.2150 C   0  0  0  0  0  0  0  0  0  0  0  0
   19.8835   39.1056  -10.7389 C   0  0  1  0  0  0  0  0  0  0  0  0
   19.9753   38.8107   -9.2130 C   0  0  0  0  0  0  0  0  0  0  0  0
   18.9285   37.8454   -8.6066 C   0  0  0  0  0  0  0  0  0  0  0  0
   17.5464   38.4655   -8.4318 C   0  0  0  0  0  0  0  0  0  0  0  0
   16.4110   37.8063   -8.9454 C   0  0  0  0  0  0  0  0  0  0  0  0
   15.1465   38.4203   -8.8666 C   0  0  0  0  0  0  0  0  0  0  0  0
   15.0213   39.6998   -8.2982 C   0  0  0  0  0  0  0  0  0  0  0  0
   16.1441   40.3732   -7.7748 C   0  0  0  0  0  0  0  0  0  0  0  0
   17.3955   39.7198   -7.8002 C   0  0  0  0  0  0  0  0  0  0  0  0
   15.9752   41.7729   -7.1819 C   0  0  0  0  0  0  0  0  0  0  0  0
   17.1911   43.0141   -7.8487 S   0  0  0  0  0  0  0  0  0  0  0  0
   16.8293   44.3442   -7.3340 O   0  0  0  0  0  0  0  0  0  0  0  0
   18.5641   42.5300   -7.6478 O   0  0  0  0  0  0  0  0  0  0  0  0
   16.8353   42.9717   -9.6663 C   0  0  0  0  0  0  0  0  0  0  0  0
   17.8467   43.7365  -10.5518 C   0  0  2  0  0  0  0  0  0  0  0  0
   19.0031   42.8720  -11.0816 C   0  0  0  0  0  0  0  0  0  0  0  0
   19.2600   42.8761  -12.2842 O   0  0  0  0  0  0  0  0  0  0  0  0
   19.7276   42.1879  -10.1836 N   0  0  0  0  0  0  0  0  0  0  0  0
   18.3719   45.0634   -9.9781 C   0  0  0  0  0  0  0  0  0  0  0  0
   18.4685   39.4056  -11.2618 C   0  0  0  0  0  0  0  0  0  0  0  0
   22.1420   43.6151  -10.0595 O   0  0  0  0  0  0  0  0  0  0  0  0
   25.0441   41.1272   -9.4263 H   0  0  0  0  0  0  0  0  0  0  0  0
   21.9639   42.7984  -11.8591 H   0  0  0  0  0  0  0  0  0  0  0  0
   21.2866   41.1819   -9.4024 H   0  0  0  0  0  0  0  0  0  0  0  0
   20.1712   38.1831  -11.2451 H   0  0  0  0  0  0  0  0  0  0  0  0
   17.2898   44.0084  -11.4474 H   0  0  0  0  0  0  0  0  0  0  0  0
   21.0197   40.5621   -2.6041 H   0  0  0  0  0  0  0  0  0  0  0  0
   22.3665   41.6001   -3.0525 H   0  0  0  0  0  0  0  0  0  0  0  0
   22.3440   39.9106   -3.5637 H   0  0  0  0  0  0  0  0  0  0  0  0
   20.2913   40.3956   -4.9651 H   0  0  0  0  0  0  0  0  0  0  0  0
   20.3680   42.0723   -4.4703 H   0  0  0  0  0  0  0  0  0  0  0  0
   21.6649   42.4753   -6.2784 H   0  0  0  0  0  0  0  0  0  0  0  0
   22.9425   41.6008   -5.4670 H   0  0  0  0  0  0  0  0  0  0  0  0
   22.1773   39.4746   -6.5796 H   0  0  0  0  0  0  0  0  0  0  0  0
   20.9391   40.3787   -7.4165 H   0  0  0  0  0  0  0  0  0  0  0  0
   23.1515   39.9982   -8.6513 H   0  0  0  0  0  0  0  0  0  0  0  0
   25.8121   43.3239   -8.4943 H   0  0  0  0  0  0  0  0  0  0  0  0
   24.7422   44.1656   -9.5769 H   0  0  0  0  0  0  0  0  0  0  0  0
   26.0671   43.1831  -10.2183 H   0  0  0  0  0  0  0  0  0  0  0  0
   24.1882   42.1542  -11.6397 H   0  0  0  0  0  0  0  0  0  0  0  0
   23.4848   40.7383  -10.9965 H   0  0  0  0  0  0  0  0  0  0  0  0
   20.7346   40.3986  -12.2673 H   0  0  0  0  0  0  0  0  0  0  0  0
   21.8968   39.7102  -11.1921 H   0  0  0  0  0  0  0  0  0  0  0  0
   20.9629   38.3853   -9.0279 H   0  0  0  0  0  0  0  0  0  0  0  0
   19.9552   39.7287   -8.6341 H   0  0  0  0  0  0  0  0  0  0  0  0
   18.8653   36.9405   -9.2124 H   0  0  0  0  0  0  0  0  0  0  0  0
   19.2643   37.5282   -7.6188 H   0  0  0  0  0  0  0  0  0  0  0  0
   16.5069   36.8405   -9.4173 H   0  0  0  0  0  0  0  0  0  0  0  0
   14.2757   37.9129   -9.2583 H   0  0  0  0  0  0  0  0  0  0  0  0
   14.0427   40.1529   -8.2351 H   0  0  0  0  0  0  0  0  0  0  0  0
   18.2589   40.1910   -7.3590 H   0  0  0  0  0  0  0  0  0  0  0  0
   14.9778   42.1565   -7.3938 H   0  0  0  0  0  0  0  0  0  0  0  0
   16.0600   41.7433   -6.1000 H   0  0  0  0  0  0  0  0  0  0  0  0
   16.7555   41.9338   -9.9751 H   0  0  0  0  0  0  0  0  0  0  0  0
   15.8487   43.4064   -9.8069 H   0  0  0  0  0  0  0  0  0  0  0  0
   19.4157   42.2415   -9.2165 H   0  0  0  0  0  0  0  0  0  0  0  0
   19.0300   45.5587  -10.6936 H   0  0  0  0  0  0  0  0  0  0  0  0
   18.9438   44.9198   -9.0616 H   0  0  0  0  0  0  0  0  0  0  0  0
   17.5547   45.7529   -9.7623 H   0  0  0  0  0  0  0  0  0  0  0  0
   17.9693   40.1668  -10.6686 H   0  0  0  0  0  0  0  0  0  0  0  0
   17.8488   38.5104  -11.2385 H   0  0  0  0  0  0  0  0  0  0  0  0
   18.4871   39.7470  -12.2978 H   0  0  0  0  0  0  0  0  0  0  0  0
   22.4524   43.3793   -9.1904 H   0  0  0  0  0  0  0  0  0  0  0  0
  1  2  1  0  0  0  0
  1 40  1  0  0  0  0
  1 41  1  0  0  0  0
  1 42  1  0  0  0  0
  2  3  1  0  0  0  0
  2 43  1  0  0  0  0
  2 44  1  0  0  0  0
  3  4  1  0  0  0  0
  3 45  1  0  0  0  0
  3 46  1  0  0  0  0
  4  5  1  0  0  0  0
  4 47  1  0  0  0  0
  4 48  1  0  0  0  0
  5  6  1  0  0  0  0
  5 49  1  0  0  0  0
  6  7  2  0  0  0  0
  6  8  1  0  0  0  0
  8 35  1  1  0  0  0
  8  9  1  0  0  0  0
  8 10  1  0  0  0  0
  9 50  1  0  0  0  0
  9 51  1  0  0  0  0
  9 52  1  0  0  0  0
 10 11  1  0  0  0  0
 10 53  1  0  0  0  0
 10 54  1  0  0  0  0
 11 36  1  6  0  0  0
 11 12  1  0  0  0  0
 11 34  1  0  0  0  0
 12 37  1  1  0  0  0
 12 31  1  0  0  0  0
 12 13  1  0  0  0  0
 13 14  1  0  0  0  0
 13 55  1  0  0  0  0
 13 56  1  0  0  0  0
 14 38  1  6  0  0  0
 14 15  1  0  0  0  0
 14 33  1  0  0  0  0
 15 16  1  0  0  0  0
 15 57  1  0  0  0  0
 15 58  1  0  0  0  0
 16 17  1  0  0  0  0
 16 59  1  0  0  0  0
 16 60  1  0  0  0  0
 17 22  1  0  0  0  0
 17 18  2  0  0  0  0
 18 19  1  0  0  0  0
 18 61  1  0  0  0  0
 19 20  2  0  0  0  0
 19 62  1  0  0  0  0
 20 21  1  0  0  0  0
 20 63  1  0  0  0  0
 21 22  2  0  0  0  0
 21 23  1  0  0  0  0
 22 64  1  0  0  0  0
 23 24  1  0  0  0  0
 23 65  1  0  0  0  0
 23 66  1  0  0  0  0
 24 25  2  0  0  0  0
 24 26  2  0  0  0  0
 24 27  1  0  0  0  0
 27 28  1  0  0  0  0
 27 67  1  0  0  0  0
 27 68  1  0  0  0  0
 28 39  1  6  0  0  0
 28 29  1  0  0  0  0
 28 32  1  0  0  0  0
 29 30  2  0  0  0  0
 29 31  1  0  0  0  0
 31 69  1  0  0  0  0
 32 70  1  0  0  0  0
 32 71  1  0  0  0  0
 32 72  1  0  0  0  0
 33 73  1  0  0  0  0
 33 74  1  0  0  0  0
 33 75  1  0  0  0  0
 34 76  1  0  0  0  0
M  END
