BACE_12.smi:1
 OpenBabel09281823033D
Structure written by MMmdl.
 79 82  0  0  1  0  0  0  0  0999 V2000
   11.7199   43.7821  -11.1136 C   0  0  0  0  0  0  0  0  0  0  0  0
   13.1309   44.3998  -11.0611 C   0  0  0  0  0  0  0  0  0  0  0  0
   13.2771   45.4167  -12.2129 C   0  0  0  0  0  0  0  0  0  0  0  0
   14.2439   43.3421  -11.0289 C   0  0  0  0  0  0  0  0  0  0  0  0
   15.5400   43.6338  -11.5207 C   0  0  0  0  0  0  0  0  0  0  0  0
   16.5348   42.6378  -11.5569 C   0  0  0  0  0  0  0  0  0  0  0  0
   16.2499   41.3451  -11.0832 C   0  0  0  0  0  0  0  0  0  0  0  0
   15.0002   41.0628  -10.4931 C   0  0  0  0  0  0  0  0  0  0  0  0
   14.0033   42.0573  -10.4857 C   0  0  0  0  0  0  0  0  0  0  0  0
   14.7395   39.7275   -9.8105 C   0  0  0  0  0  0  0  0  0  0  0  0
   14.8618   39.8644   -8.3393 N   0  3  0  0  0  0  0  0  0  0  0  0
   15.6950   38.8426   -7.6548 C   0  0  0  0  0  0  0  0  0  0  0  0
   16.9991   39.4642   -7.0994 C   0  0  2  0  0  0  0  0  0  0  0  0
   17.9931   39.8967   -8.2125 C   0  0  2  0  0  0  0  0  0  0  0  0
   19.1543   38.9064   -8.4923 C   0  0  0  0  0  0  0  0  0  0  0  0
   20.0246   39.3768   -9.6353 C   0  0  0  0  0  0  0  0  0  0  0  0
   19.5074   39.3703  -10.9440 C   0  0  0  0  0  0  0  0  0  0  0  0
   20.2484   39.9410  -11.9897 C   0  0  0  0  0  0  0  0  0  0  0  0
   21.5202   40.4745  -11.7364 C   0  0  0  0  0  0  0  0  0  0  0  0
   22.0810   40.4161  -10.4420 C   0  0  0  0  0  0  0  0  0  0  0  0
   21.3205   39.8753   -9.3877 C   0  0  0  0  0  0  0  0  0  0  0  0
   23.4956   40.9193  -10.1901 C   0  0  0  0  0  0  0  0  0  0  0  0
   23.6595   42.4225  -10.4502 C   0  0  0  0  0  0  0  0  0  0  0  0
   22.9773   43.2952   -9.3841 C   0  0  0  0  0  0  0  0  0  0  0  0
   22.2717   44.5166   -9.9931 C   0  0  0  0  0  0  0  0  0  0  0  0
   21.6754   45.3739   -8.9803 N   0  0  0  0  0  0  0  0  0  0  0  0
   20.4643   45.0682   -8.3491 C   0  0  0  0  0  0  0  0  0  0  0  0
   19.7464   43.8718   -8.5774 C   0  0  0  0  0  0  0  0  0  0  0  0
   18.5409   43.6573   -7.8748 C   0  0  0  0  0  0  0  0  0  0  0  0
   18.0815   44.6743   -7.0149 C   0  0  0  0  0  0  0  0  0  0  0  0
   18.8735   45.8217   -6.8308 C   0  0  0  0  0  0  0  0  0  0  0  0
   20.0400   46.0140   -7.4894 N   0  0  0  0  0  0  0  0  0  0  0  0
   18.4602   46.7769   -5.9243 O   0  0  0  0  0  0  0  0  0  0  0  0
   19.2881   47.9186   -5.7250 C   0  0  0  0  0  0  0  0  0  0  0  0
   17.7596   42.3871   -8.0393 C   0  0  0  0  0  0  0  0  0  0  0  0
   16.5296   42.3959   -8.1074 O   0  0  0  0  0  0  0  0  0  0  0  0
   18.4934   41.2627   -8.0401 N   0  0  0  0  0  0  0  0  0  0  0  0
   17.6594   38.5499   -6.2544 O   0  0  0  0  0  0  0  0  0  0  0  0
   16.6911   40.2951   -6.4721 H   0  0  0  0  0  0  0  0  0  0  0  0
   17.4277   39.9308   -9.1340 H   0  0  0  0  0  0  0  0  0  0  0  0
   11.4721   43.2483  -10.1938 H   0  0  0  0  0  0  0  0  0  0  0  0
   11.6230   43.0887  -11.9520 H   0  0  0  0  0  0  0  0  0  0  0  0
   10.9617   44.5491  -11.2371 H   0  0  0  0  0  0  0  0  0  0  0  0
   13.2113   44.9494  -10.1246 H   0  0  0  0  0  0  0  0  0  0  0  0
   14.1815   46.0191  -12.1184 H   0  0  0  0  0  0  0  0  0  0  0  0
   12.4467   46.1230  -12.2302 H   0  0  0  0  0  0  0  0  0  0  0  0
   13.2942   44.9116  -13.1805 H   0  0  0  0  0  0  0  0  0  0  0  0
   15.7915   44.6121  -11.8980 H   0  0  0  0  0  0  0  0  0  0  0  0
   17.5138   42.8643  -11.9541 H   0  0  0  0  0  0  0  0  0  0  0  0
   17.0169   40.5905  -11.1378 H   0  0  0  0  0  0  0  0  0  0  0  0
   13.0524   41.8087  -10.0385 H   0  0  0  0  0  0  0  0  0  0  0  0
   13.7348   39.3697  -10.0406 H   0  0  0  0  0  0  0  0  0  0  0  0
   15.4339   38.9862  -10.2100 H   0  0  0  0  0  0  0  0  0  0  0  0
   15.2618   40.7754   -8.1385 H   0  0  0  0  0  0  0  0  0  0  0  0
   15.0892   38.4661   -6.8319 H   0  0  0  0  0  0  0  0  0  0  0  0
   15.9019   37.9778   -8.2880 H   0  0  0  0  0  0  0  0  0  0  0  0
   19.7819   38.7828   -7.6087 H   0  0  0  0  0  0  0  0  0  0  0  0
   18.7612   37.9188   -8.7366 H   0  0  0  0  0  0  0  0  0  0  0  0
   18.5309   38.9553  -11.1467 H   0  0  0  0  0  0  0  0  0  0  0  0
   19.8448   39.9715  -12.9894 H   0  0  0  0  0  0  0  0  0  0  0  0
   22.0599   40.9124  -12.5579 H   0  0  0  0  0  0  0  0  0  0  0  0
   21.7282   39.8560   -8.3868 H   0  0  0  0  0  0  0  0  0  0  0  0
   23.8032   40.6803   -9.1719 H   0  0  0  0  0  0  0  0  0  0  0  0
   24.1691   40.3618  -10.8402 H   0  0  0  0  0  0  0  0  0  0  0  0
   24.7214   42.6681  -10.4689 H   0  0  0  0  0  0  0  0  0  0  0  0
   23.2893   42.6599  -11.4476 H   0  0  0  0  0  0  0  0  0  0  0  0
   22.2596   42.6977   -8.8235 H   0  0  0  0  0  0  0  0  0  0  0  0
   23.7207   43.6186   -8.6520 H   0  0  0  0  0  0  0  0  0  0  0  0
   22.9962   45.1120  -10.5508 H   0  0  0  0  0  0  0  0  0  0  0  0
   21.5098   44.2072  -10.7097 H   0  0  0  0  0  0  0  0  0  0  0  0
   22.1254   46.2483   -8.7555 H   0  0  0  0  0  0  0  0  0  0  0  0
   20.1056   43.1261   -9.2705 H   0  0  0  0  0  0  0  0  0  0  0  0
   17.1565   44.5507   -6.4695 H   0  0  0  0  0  0  0  0  0  0  0  0
   18.8508   48.5507   -4.9546 H   0  0  0  0  0  0  0  0  0  0  0  0
   19.3717   48.5103   -6.6369 H   0  0  0  0  0  0  0  0  0  0  0  0
   20.2895   47.6363   -5.3909 H   0  0  0  0  0  0  0  0  0  0  0  0
   19.4911   41.3633   -7.9274 H   0  0  0  0  0  0  0  0  0  0  0  0
   17.0464   37.8500   -6.0398 H   0  0  0  0  0  0  0  0  0  0  0  0
   13.9288   39.8511   -7.9426 H   0  0  0  0  0  0  0  0  0  0  0  0
  1  2  1  0  0  0  0
  1 41  1  0  0  0  0
  1 42  1  0  0  0  0
  1 43  1  0  0  0  0
  2  3  1  0  0  0  0
  2  4  1  0  0  0  0
  2 44  1  0  0  0  0
  3 45  1  0  0  0  0
  3 46  1  0  0  0  0
  3 47  1  0  0  0  0
  4  9  1  0  0  0  0
  4  5  2  0  0  0  0
  5  6  1  0  0  0  0
  5 48  1  0  0  0  0
  6  7  2  0  0  0  0
  6 49  1  0  0  0  0
  7  8  1  0  0  0  0
  7 50  1  0  0  0  0
  8  9  2  0  0  0  0
  8 10  1  0  0  0  0
  9 51  1  0  0  0  0
 10 11  1  0  0  0  0
 10 52  1  0  0  0  0
 10 53  1  0  0  0  0
 11 12  1  0  0  0  0
 11 54  1  0  0  0  0
 11 79  1  0  0  0  0
 12 13  1  0  0  0  0
 12 55  1  0  0  0  0
 12 56  1  0  0  0  0
 13 39  1  1  0  0  0
 13 14  1  0  0  0  0
 13 38  1  0  0  0  0
 14 40  1  6  0  0  0
 14 37  1  0  0  0  0
 14 15  1  0  0  0  0
 15 16  1  0  0  0  0
 15 57  1  0  0  0  0
 15 58  1  0  0  0  0
 16 21  1  0  0  0  0
 16 17  2  0  0  0  0
 17 18  1  0  0  0  0
 17 59  1  0  0  0  0
 18 19  2  0  0  0  0
 18 60  1  0  0  0  0
 19 20  1  0  0  0  0
 19 61  1  0  0  0  0
 20 21  2  0  0  0  0
 20 22  1  0  0  0  0
 21 62  1  0  0  0  0
 22 23  1  0  0  0  0
 22 63  1  0  0  0  0
 22 64  1  0  0  0  0
 23 24  1  0  0  0  0
 23 65  1  0  0  0  0
 23 66  1  0  0  0  0
 24 25  1  0  0  0  0
 24 67  1  0  0  0  0
 24 68  1  0  0  0  0
 25 26  1  0  0  0  0
 25 69  1  0  0  0  0
 25 70  1  0  0  0  0
 26 27  1  0  0  0  0
 26 71  1  0  0  0  0
 27 32  1  0  0  0  0
 27 28  2  0  0  0  0
 28 29  1  0  0  0  0
 28 72  1  0  0  0  0
 29 30  2  0  0  0  0
 29 35  1  0  0  0  0
 30 31  1  0  0  0  0
 30 73  1  0  0  0  0
 31 32  2  0  0  0  0
 31 33  1  0  0  0  0
 33 34  1  0  0  0  0
 34 74  1  0  0  0  0
 34 75  1  0  0  0  0
 34 76  1  0  0  0  0
 35 36  2  0  0  0  0
 35 37  1  0  0  0  0
 37 77  1  0  0  0  0
 38 78  1  0  0  0  0
M  CHG  1  11   1
M  END
