BACE_11.smi:1
 OpenBabel09281823033D
Structure written by MMmdl.
 81 83  0  0  1  0  0  0  0  0999 V2000
   21.0490   42.1157   -4.8721 C   0  0  0  0  0  0  0  0  0  0  0  0
   21.0206   41.7767   -6.3755 C   0  0  1  0  0  0  0  0  0  0  0  0
   20.3324   40.4389   -6.7270 C   0  0  0  0  0  0  0  0  0  0  0  0
   20.5951   39.4517   -6.0452 O   0  0  0  0  0  0  0  0  0  0  0  0
   19.5333   40.3744   -7.8079 N   0  0  0  0  0  0  0  0  0  0  0  0
   18.9848   39.1583   -8.4403 C   0  0  1  0  0  0  0  0  0  0  0  0
   20.1162   38.4321   -9.2103 C   0  0  0  0  0  0  0  0  0  0  0  0
   20.7299   39.3746  -10.2354 C   0  0  0  0  0  0  0  0  0  0  0  0
   20.0956   39.5600  -11.4790 C   0  0  0  0  0  0  0  0  0  0  0  0
   20.5661   40.5387  -12.3727 C   0  0  0  0  0  0  0  0  0  0  0  0
   21.6599   41.3500  -12.0182 C   0  0  0  0  0  0  0  0  0  0  0  0
   22.3134   41.1679  -10.7745 C   0  0  0  0  0  0  0  0  0  0  0  0
   21.8563   40.1569   -9.9058 C   0  0  0  0  0  0  0  0  0  0  0  0
   23.3678   41.9353  -10.3304 O   0  0  0  0  0  0  0  0  0  0  0  0
   23.8422   42.9848  -11.1594 C   0  0  0  0  0  0  0  0  0  0  0  0
   24.8429   43.8511  -10.3761 C   0  0  0  0  0  0  0  0  0  0  0  0
   24.1953   44.9409   -9.4935 C   0  0  0  0  0  0  0  0  0  0  0  0
   24.0981   44.6351   -7.9813 C   0  0  0  0  0  0  0  0  0  0  0  0
   23.1229   43.5252   -7.5279 C   0  0  0  0  0  0  0  0  0  0  0  0
   21.6177   43.8159   -7.7222 C   0  0  0  0  0  0  0  0  0  0  0  0
   21.2879   44.8221   -8.3545 O   0  0  0  0  0  0  0  0  0  0  0  0
   20.6880   42.9779   -7.1836 N   0  0  0  0  0  0  0  0  0  0  0  0
   19.2676   43.3687   -7.2580 C   0  0  0  0  0  0  0  0  0  0  0  0
   18.1139   38.2836   -7.4786 C   0  0  1  0  0  0  0  0  0  0  0  0
   16.7127   38.8552   -7.1659 C   0  0  0  0  0  0  0  0  0  0  0  0
   16.6406   40.3246   -7.2400 N   0  3  0  0  0  0  0  0  0  0  0  0
   15.2787   40.8689   -7.2563 C   0  0  0  0  0  0  0  0  0  0  0  0
   14.9101   41.2733   -8.6679 C   0  0  0  0  0  0  0  0  0  0  0  0
   14.8588   40.3132   -9.7016 C   0  0  0  0  0  0  0  0  0  0  0  0
   14.4599   40.6873  -10.9928 C   0  0  0  0  0  0  0  0  0  0  0  0
   14.0595   42.0127  -11.2400 C   0  0  0  0  0  0  0  0  0  0  0  0
   14.1478   42.9886  -10.2311 C   0  0  0  0  0  0  0  0  0  0  0  0
   14.5897   42.6178   -8.9457 C   0  0  0  0  0  0  0  0  0  0  0  0
   13.7627   44.4247  -10.5260 C   0  0  0  0  0  0  0  0  0  0  0  0
   12.3154   44.5416  -11.0315 C   0  0  0  0  0  0  0  0  0  0  0  0
   14.7580   45.0805  -11.4965 C   0  0  0  0  0  0  0  0  0  0  0  0
   17.8496   37.0145   -8.0401 O   0  0  0  0  0  0  0  0  0  0  0  0
   22.0445   41.4879   -6.6005 H   0  0  0  0  0  0  0  0  0  0  0  0
   18.3036   39.5100   -9.2171 H   0  0  0  0  0  0  0  0  0  0  0  0
   18.6393   38.0916   -6.5442 H   0  0  0  0  0  0  0  0  0  0  0  0
   21.3861   41.2682   -4.2753 H   0  0  0  0  0  0  0  0  0  0  0  0
   20.0618   42.3977   -4.5082 H   0  0  0  0  0  0  0  0  0  0  0  0
   21.7261   42.9448   -4.6643 H   0  0  0  0  0  0  0  0  0  0  0  0
   19.4473   41.2288   -8.3389 H   0  0  0  0  0  0  0  0  0  0  0  0
   20.8847   38.0658   -8.5293 H   0  0  0  0  0  0  0  0  0  0  0  0
   19.7298   37.5579   -9.7354 H   0  0  0  0  0  0  0  0  0  0  0  0
   19.2292   38.9681  -11.7374 H   0  0  0  0  0  0  0  0  0  0  0  0
   20.0733   40.6769  -13.3224 H   0  0  0  0  0  0  0  0  0  0  0  0
   21.9916   42.0983  -12.7230 H   0  0  0  0  0  0  0  0  0  0  0  0
   22.3436   40.0221   -8.9524 H   0  0  0  0  0  0  0  0  0  0  0  0
   24.3384   42.5502  -12.0285 H   0  0  0  0  0  0  0  0  0  0  0  0
   23.0284   43.6130  -11.5245 H   0  0  0  0  0  0  0  0  0  0  0  0
   25.5323   43.2292   -9.8037 H   0  0  0  0  0  0  0  0  0  0  0  0
   25.4606   44.3621  -11.1170 H   0  0  0  0  0  0  0  0  0  0  0  0
   24.8169   45.8337   -9.5825 H   0  0  0  0  0  0  0  0  0  0  0  0
   23.2321   45.2421   -9.9024 H   0  0  0  0  0  0  0  0  0  0  0  0
   25.0950   44.3884   -7.6136 H   0  0  0  0  0  0  0  0  0  0  0  0
   23.8231   45.5561   -7.4644 H   0  0  0  0  0  0  0  0  0  0  0  0
   23.3841   42.5872   -8.0121 H   0  0  0  0  0  0  0  0  0  0  0  0
   23.2950   43.3735   -6.4631 H   0  0  0  0  0  0  0  0  0  0  0  0
   18.8280   43.0576   -8.2067 H   0  0  0  0  0  0  0  0  0  0  0  0
   19.1318   44.4489   -7.1714 H   0  0  0  0  0  0  0  0  0  0  0  0
   18.6835   42.9429   -6.4444 H   0  0  0  0  0  0  0  0  0  0  0  0
   15.9714   38.4264   -7.8363 H   0  0  0  0  0  0  0  0  0  0  0  0
   16.4071   38.5500   -6.1694 H   0  0  0  0  0  0  0  0  0  0  0  0
   17.1058   40.6856   -6.4077 H   0  0  0  0  0  0  0  0  0  0  0  0
   14.5470   40.1737   -6.8381 H   0  0  0  0  0  0  0  0  0  0  0  0
   15.2840   41.7480   -6.6142 H   0  0  0  0  0  0  0  0  0  0  0  0
   15.0827   39.2748   -9.5224 H   0  0  0  0  0  0  0  0  0  0  0  0
   14.3883   39.9343  -11.7623 H   0  0  0  0  0  0  0  0  0  0  0  0
   13.6614   42.2925  -12.2022 H   0  0  0  0  0  0  0  0  0  0  0  0
   14.6410   43.3553   -8.1577 H   0  0  0  0  0  0  0  0  0  0  0  0
   13.8218   44.9506   -9.5754 H   0  0  0  0  0  0  0  0  0  0  0  0
   11.6120   44.1545  -10.2932 H   0  0  0  0  0  0  0  0  0  0  0  0
   12.1588   43.9889  -11.9577 H   0  0  0  0  0  0  0  0  0  0  0  0
   12.0621   45.5785  -11.2417 H   0  0  0  0  0  0  0  0  0  0  0  0
   15.7721   45.0358  -11.1003 H   0  0  0  0  0  0  0  0  0  0  0  0
   14.5179   46.1314  -11.6612 H   0  0  0  0  0  0  0  0  0  0  0  0
   14.7565   44.5827  -12.4660 H   0  0  0  0  0  0  0  0  0  0  0  0
   17.2897   36.5499   -7.4202 H   0  0  0  0  0  0  0  0  0  0  0  0
   17.1263   40.6530   -8.0581 H   0  0  0  0  0  0  0  0  0  0  0  0
  1  2  1  0  0  0  0
  1 41  1  0  0  0  0
  1 42  1  0  0  0  0
  1 43  1  0  0  0  0
  2 38  1  6  0  0  0
  2 22  1  0  0  0  0
  2  3  1  0  0  0  0
  3  4  2  0  0  0  0
  3  5  1  0  0  0  0
  5  6  1  0  0  0  0
  5 44  1  0  0  0  0
  6 39  1  6  0  0  0
  6  7  1  0  0  0  0
  6 24  1  0  0  0  0
  7  8  1  0  0  0  0
  7 45  1  0  0  0  0
  7 46  1  0  0  0  0
  8 13  1  0  0  0  0
  8  9  2  0  0  0  0
  9 10  1  0  0  0  0
  9 47  1  0  0  0  0
 10 11  2  0  0  0  0
 10 48  1  0  0  0  0
 11 12  1  0  0  0  0
 11 49  1  0  0  0  0
 12 13  2  0  0  0  0
 12 14  1  0  0  0  0
 13 50  1  0  0  0  0
 14 15  1  0  0  0  0
 15 16  1  0  0  0  0
 15 51  1  0  0  0  0
 15 52  1  0  0  0  0
 16 17  1  0  0  0  0
 16 53  1  0  0  0  0
 16 54  1  0  0  0  0
 17 18  1  0  0  0  0
 17 55  1  0  0  0  0
 17 56  1  0  0  0  0
 18 19  1  0  0  0  0
 18 57  1  0  0  0  0
 18 58  1  0  0  0  0
 19 20  1  0  0  0  0
 19 59  1  0  0  0  0
 19 60  1  0  0  0  0
 20 21  2  0  0  0  0
 20 22  1  0  0  0  0
 22 23  1  0  0  0  0
 23 61  1  0  0  0  0
 23 62  1  0  0  0  0
 23 63  1  0  0  0  0
 24 40  1  1  0  0  0
 24 25  1  0  0  0  0
 24 37  1  0  0  0  0
 25 26  1  0  0  0  0
 25 64  1  0  0  0  0
 25 65  1  0  0  0  0
 26 27  1  0  0  0  0
 26 66  1  0  0  0  0
 26 81  1  0  0  0  0
 27 28  1  0  0  0  0
 27 67  1  0  0  0  0
 27 68  1  0  0  0  0
 28 33  1  0  0  0  0
 28 29  2  0  0  0  0
 29 30  1  0  0  0  0
 29 69  1  0  0  0  0
 30 31  2  0  0  0  0
 30 70  1  0  0  0  0
 31 32  1  0  0  0  0
 31 71  1  0  0  0  0
 32 33  2  0  0  0  0
 32 34  1  0  0  0  0
 33 72  1  0  0  0  0
 34 35  1  0  0  0  0
 34 36  1  0  0  0  0
 34 73  1  0  0  0  0
 35 74  1  0  0  0  0
 35 75  1  0  0  0  0
 35 76  1  0  0  0  0
 36 77  1  0  0  0  0
 36 78  1  0  0  0  0
 36 79  1  0  0  0  0
 37 80  1  0  0  0  0
M  CHG  1  26   1
M  END
