BACE_5.smi:1
 OpenBabel09281823033D
Structure written by MMmdl.
 79 80  0  0  1  0  0  0  0  0999 V2000
   30.8608   43.0655   -9.1147 C   0  0  0  0  0  0  0  0  0  0  0  0
   29.9599   44.3041   -9.1863 C   0  0  0  0  0  0  0  0  0  0  0  0
   29.1757   44.4214  -10.5059 C   0  0  0  0  0  0  0  0  0  0  0  0
   28.0442   43.4327  -10.6332 C   0  0  0  0  0  0  0  0  0  0  0  0
   26.6465   43.6935  -10.5232 C   0  0  0  0  0  0  0  0  0  0  0  0
   26.0534   42.4875  -10.7775 C   0  0  0  0  0  0  0  0  0  0  0  0
   27.0781   41.5951  -10.9889 N   0  0  0  0  0  0  0  0  0  0  0  0
   28.2966   42.1614  -10.9139 N   0  0  0  0  0  0  0  0  0  0  0  0
   24.6129   42.1008  -10.8739 C   0  0  0  0  0  0  0  0  0  0  0  0
   23.8198   42.5298   -9.7237 N   0  0  0  0  0  0  0  0  0  0  0  0
   23.7651   41.5599   -8.6344 C   0  0  0  0  0  0  0  0  0  0  0  0
   22.8441   40.3499   -8.9357 C   0  0  2  0  0  0  0  0  0  0  0  0
   21.3252   40.6209   -8.7575 C   0  0  2  0  0  0  0  0  0  0  0  0
   20.4753   39.3144   -8.7637 C   0  0  0  0  0  0  0  0  0  0  0  0
   18.9764   39.4834   -8.4033 C   0  0  1  0  0  0  0  0  0  0  0  0
   18.0971   39.6292   -9.6647 C   0  0  0  0  0  0  0  0  0  0  0  0
   16.6622   40.0976   -9.3742 C   0  0  0  0  0  0  0  0  0  0  0  0
   15.9013   40.4062  -10.6711 C   0  0  0  0  0  0  0  0  0  0  0  0
   14.4785   40.9658  -10.4884 C   0  0  0  0  0  0  0  0  0  0  0  0
   14.3690   42.2731   -9.6787 C   0  0  0  0  0  0  0  0  0  0  0  0
   15.3945   43.3597  -10.0421 C   0  0  0  0  0  0  0  0  0  0  0  0
   15.3255   43.7094  -11.4219 O   0  0  0  0  0  0  0  0  0  0  0  0
   16.3013   44.6653  -11.8438 C   0  0  0  0  0  0  0  0  0  0  0  0
   17.6945   44.0134  -11.9467 C   0  0  0  0  0  0  0  0  0  0  0  0
   17.9029   43.2978  -12.9287 O   0  0  0  0  0  0  0  0  0  0  0  0
   18.6174   44.2156  -10.9692 N   0  0  0  0  0  0  0  0  0  0  0  0
   19.9065   43.4778  -10.9507 C   0  0  2  0  0  0  0  0  0  0  0  0
   20.1617   42.6525   -9.6682 C   0  0  0  0  0  0  0  0  0  0  0  0
   19.7670   43.0340   -8.5700 O   0  0  0  0  0  0  0  0  0  0  0  0
   20.8745   41.5214   -9.8271 N   0  0  0  0  0  0  0  0  0  0  0  0
   21.0713   44.4459  -11.2364 C   0  0  0  0  0  0  0  0  0  0  0  0
   18.4160   45.2447   -9.9412 C   0  0  0  0  0  0  0  0  0  0  0  0
   18.4868   38.3148   -7.5258 C   0  0  0  0  0  0  0  0  0  0  0  0
   23.2586   39.3501   -8.0387 O   0  0  0  0  0  0  0  0  0  0  0  0
   26.9750   40.6055  -11.1835 H   0  0  0  0  0  0  0  0  0  0  0  0
   23.0188   39.9513   -9.9358 H   0  0  0  0  0  0  0  0  0  0  0  0
   21.1912   41.0964   -7.7809 H   0  0  0  0  0  0  0  0  0  0  0  0
   18.8784   40.3890   -7.8027 H   0  0  0  0  0  0  0  0  0  0  0  0
   19.9205   42.7522  -11.7640 H   0  0  0  0  0  0  0  0  0  0  0  0
   31.4266   43.0508   -8.1835 H   0  0  0  0  0  0  0  0  0  0  0  0
   31.5699   43.0420   -9.9443 H   0  0  0  0  0  0  0  0  0  0  0  0
   30.2728   42.1506   -9.1542 H   0  0  0  0  0  0  0  0  0  0  0  0
   30.5920   45.1846   -9.0778 H   0  0  0  0  0  0  0  0  0  0  0  0
   29.2700   44.3155   -8.3432 H   0  0  0  0  0  0  0  0  0  0  0  0
   29.8517   44.3246  -11.3563 H   0  0  0  0  0  0  0  0  0  0  0  0
   28.7671   45.4311  -10.5736 H   0  0  0  0  0  0  0  0  0  0  0  0
   26.1481   44.6255  -10.3124 H   0  0  0  0  0  0  0  0  0  0  0  0
   24.5348   41.0244  -11.0144 H   0  0  0  0  0  0  0  0  0  0  0  0
   24.2028   42.5524  -11.7778 H   0  0  0  0  0  0  0  0  0  0  0  0
   22.8803   42.7680  -10.0197 H   0  0  0  0  0  0  0  0  0  0  0  0
   23.4264   42.0484   -7.7206 H   0  0  0  0  0  0  0  0  0  0  0  0
   24.7793   41.2160   -8.4314 H   0  0  0  0  0  0  0  0  0  0  0  0
   20.5835   38.8010   -9.7218 H   0  0  0  0  0  0  0  0  0  0  0  0
   20.9063   38.6321   -8.0326 H   0  0  0  0  0  0  0  0  0  0  0  0
   18.5557   40.3416  -10.3460 H   0  0  0  0  0  0  0  0  0  0  0  0
   18.0731   38.6831  -10.2062 H   0  0  0  0  0  0  0  0  0  0  0  0
   16.6975   40.9804   -8.7381 H   0  0  0  0  0  0  0  0  0  0  0  0
   16.1171   39.3383   -8.8114 H   0  0  0  0  0  0  0  0  0  0  0  0
   16.4845   41.0895  -11.2885 H   0  0  0  0  0  0  0  0  0  0  0  0
   15.8302   39.4779  -11.2398 H   0  0  0  0  0  0  0  0  0  0  0  0
   13.8491   40.2087  -10.0112 H   0  0  0  0  0  0  0  0  0  0  0  0
   14.0444   41.1288  -11.4757 H   0  0  0  0  0  0  0  0  0  0  0  0
   13.3609   42.6705   -9.7901 H   0  0  0  0  0  0  0  0  0  0  0  0
   14.4770   42.0402   -8.6166 H   0  0  0  0  0  0  0  0  0  0  0  0
   16.3889   43.0132   -9.7722 H   0  0  0  0  0  0  0  0  0  0  0  0
   15.2057   44.2457   -9.4365 H   0  0  0  0  0  0  0  0  0  0  0  0
   16.2688   45.5527  -11.2181 H   0  0  0  0  0  0  0  0  0  0  0  0
   16.0243   45.0031  -12.8422 H   0  0  0  0  0  0  0  0  0  0  0  0
   21.1382   41.2688  -10.7680 H   0  0  0  0  0  0  0  0  0  0  0  0
   21.9687   43.9027  -11.5324 H   0  0  0  0  0  0  0  0  0  0  0  0
   21.3284   45.0500  -10.3646 H   0  0  0  0  0  0  0  0  0  0  0  0
   20.8218   45.1372  -12.0406 H   0  0  0  0  0  0  0  0  0  0  0  0
   19.3095   45.4323   -9.3462 H   0  0  0  0  0  0  0  0  0  0  0  0
   17.6307   44.9577   -9.2432 H   0  0  0  0  0  0  0  0  0  0  0  0
   18.1475   46.1994  -10.3907 H   0  0  0  0  0  0  0  0  0  0  0  0
   17.4619   38.4658   -7.1903 H   0  0  0  0  0  0  0  0  0  0  0  0
   19.0935   38.2098   -6.6271 H   0  0  0  0  0  0  0  0  0  0  0  0
   18.5223   37.3690   -8.0653 H   0  0  0  0  0  0  0  0  0  0  0  0
   24.0128   38.9219   -8.4293 H   0  0  0  0  0  0  0  0  0  0  0  0
  1  2  1  0  0  0  0
  1 40  1  0  0  0  0
  1 41  1  0  0  0  0
  1 42  1  0  0  0  0
  2  3  1  0  0  0  0
  2 43  1  0  0  0  0
  2 44  1  0  0  0  0
  3 45  1  0  0  0  0
  3 46  1  0  0  0  0
  3  4  1  0  0  0  0
  4  8  2  0  0  0  0
  4  5  1  0  0  0  0
  5  6  2  0  0  0  0
  5 47  1  0  0  0  0
  6  7  1  0  0  0  0
  6  9  1  0  0  0  0
  7  8  1  0  0  0  0
  7 35  1  0  0  0  0
  9 10  1  0  0  0  0
  9 48  1  0  0  0  0
  9 49  1  0  0  0  0
 10 11  1  0  0  0  0
 10 50  1  0  0  0  0
 11 12  1  0  0  0  0
 11 51  1  0  0  0  0
 11 52  1  0  0  0  0
 12 36  1  6  0  0  0
 12 13  1  0  0  0  0
 12 34  1  0  0  0  0
 13 37  1  1  0  0  0
 13 30  1  0  0  0  0
 13 14  1  0  0  0  0
 14 15  1  0  0  0  0
 14 53  1  0  0  0  0
 14 54  1  0  0  0  0
 15 38  1  1  0  0  0
 15 16  1  0  0  0  0
 15 33  1  0  0  0  0
 16 17  1  0  0  0  0
 16 55  1  0  0  0  0
 16 56  1  0  0  0  0
 17 18  1  0  0  0  0
 17 57  1  0  0  0  0
 17 58  1  0  0  0  0
 18 19  1  0  0  0  0
 18 59  1  0  0  0  0
 18 60  1  0  0  0  0
 19 20  1  0  0  0  0
 19 61  1  0  0  0  0
 19 62  1  0  0  0  0
 20 21  1  0  0  0  0
 20 63  1  0  0  0  0
 20 64  1  0  0  0  0
 21 22  1  0  0  0  0
 21 65  1  0  0  0  0
 21 66  1  0  0  0  0
 22 23  1  0  0  0  0
 23 24  1  0  0  0  0
 23 67  1  0  0  0  0
 23 68  1  0  0  0  0
 24 25  2  0  0  0  0
 24 26  1  0  0  0  0
 26 27  1  0  0  0  0
 26 32  1  0  0  0  0
 27 39  1  6  0  0  0
 27 28  1  0  0  0  0
 27 31  1  0  0  0  0
 28 29  2  0  0  0  0
 28 30  1  0  0  0  0
 30 69  1  0  0  0  0
 31 70  1  0  0  0  0
 31 71  1  0  0  0  0
 31 72  1  0  0  0  0
 32 73  1  0  0  0  0
 32 74  1  0  0  0  0
 32 75  1  0  0  0  0
 33 76  1  0  0  0  0
 33 77  1  0  0  0  0
 33 78  1  0  0  0  0
 34 79  1  0  0  0  0
M  END
