BACE_1.smi:1
 OpenBabel09281823033D
Structure written by MMmdl.
 87 88  0  0  1  0  0  0  0  0999 V2000
   31.7244   41.8987  -12.9755 C   0  0  0  0  0  0  0  0  0  0  0  0
   30.7765   43.0920  -12.8115 C   0  0  0  0  0  0  0  0  0  0  0  0
   29.3137   42.6929  -12.5820 C   0  0  0  0  0  0  0  0  0  0  0  0
   29.0323   42.0044  -11.2316 C   0  0  0  0  0  0  0  0  0  0  0  0
   27.6034   41.7528  -11.1061 N   0  0  0  0  0  0  0  0  0  0  0  0
   26.7189   42.5957  -10.5519 C   0  0  0  0  0  0  0  0  0  0  0  0
   27.0386   43.5278   -9.8132 O   0  0  0  0  0  0  0  0  0  0  0  0
   25.2575   42.4113  -10.9781 C   0  0  2  0  0  0  0  0  0  0  0  0
   24.8151   43.6148  -11.8349 C   0  0  0  0  0  0  0  0  0  0  0  0
   24.2944   42.1420   -9.7901 C   0  0  0  0  0  0  0  0  0  0  0  0
   23.2069   41.0851  -10.1016 C   0  0  1  0  0  0  0  0  0  0  0  0
   22.2309   40.8083   -8.9356 C   0  0  2  0  0  0  0  0  0  0  0  0
   21.3567   39.5557   -9.2069 C   0  0  0  0  0  0  0  0  0  0  0  0
   20.3189   39.2160   -8.1086 C   0  0  1  0  0  0  0  0  0  0  0  0
   19.2434   38.2411   -8.6397 C   0  0  0  0  0  0  0  0  0  0  0  0
   18.0604   37.9573   -7.6868 C   0  0  0  0  0  0  0  0  0  0  0  0
   17.3450   39.1991   -7.1205 C   0  0  0  0  0  0  0  0  0  0  0  0
   16.7633   40.1374   -8.1842 C   0  0  0  0  0  0  0  0  0  0  0  0
   16.1341   41.4012   -7.5679 C   0  0  0  0  0  0  0  0  0  0  0  0
   15.7534   42.3780   -8.5983 N   0  0  0  0  0  0  0  0  0  0  0  0
   16.3184   43.6068   -8.7598 C   0  0  0  0  0  0  0  0  0  0  0  0
   15.7995   44.4806   -9.4610 O   0  0  0  0  0  0  0  0  0  0  0  0
   17.6047   43.9503   -8.0501 C   0  0  0  0  0  0  0  0  0  0  0  0
   18.7585   43.1418   -8.1584 C   0  0  0  0  0  0  0  0  0  0  0  0
   19.9593   43.4974   -7.5018 C   0  0  0  0  0  0  0  0  0  0  0  0
   20.0083   44.6899   -6.7494 C   0  0  0  0  0  0  0  0  0  0  0  0
   18.8776   45.5378   -6.6705 C   0  0  0  0  0  0  0  0  0  0  0  0
   17.6865   45.1514   -7.3160 C   0  0  0  0  0  0  0  0  0  0  0  0
   18.8592   46.7294   -5.9773 O   0  0  0  0  0  0  0  0  0  0  0  0
   20.0732   47.4794   -5.9036 C   0  0  0  0  0  0  0  0  0  0  0  0
   20.4876   48.0267   -7.2773 C   0  0  0  0  0  0  0  0  0  0  0  0
   21.1478   42.5790   -7.5322 C   0  0  0  0  0  0  0  0  0  0  0  0
   21.8542   42.4179   -6.5383 O   0  0  0  0  0  0  0  0  0  0  0  0
   21.3658   41.9675   -8.7064 N   0  0  0  0  0  0  0  0  0  0  0  0
   14.5214   42.0215   -9.3205 C   0  0  0  0  0  0  0  0  0  0  0  0
   14.7816   41.7284  -10.8067 C   0  0  0  0  0  0  0  0  0  0  0  0
   20.9976   38.6964   -6.8314 C   0  0  0  0  0  0  0  0  0  0  0  0
   22.4602   41.4742  -11.2398 O   0  0  0  0  0  0  0  0  0  0  0  0
   25.2602   41.5320  -11.6165 H   0  0  0  0  0  0  0  0  0  0  0  0
   23.7040   40.1501  -10.3550 H   0  0  0  0  0  0  0  0  0  0  0  0
   22.8347   40.6063   -8.0507 H   0  0  0  0  0  0  0  0  0  0  0  0
   19.7967   40.1324   -7.8498 H   0  0  0  0  0  0  0  0  0  0  0  0
   32.7218   42.2341  -13.2639 H   0  0  0  0  0  0  0  0  0  0  0  0
   31.3727   41.2018  -13.7438 H   0  0  0  0  0  0  0  0  0  0  0  0
   31.8214   41.3502  -12.0389 H   0  0  0  0  0  0  0  0  0  0  0  0
   31.1243   43.7307  -11.9957 H   0  0  0  0  0  0  0  0  0  0  0  0
   30.8365   43.6954  -13.7176 H   0  0  0  0  0  0  0  0  0  0  0  0
   28.7058   43.5997  -12.6559 H   0  0  0  0  0  0  0  0  0  0  0  0
   28.9828   42.0446  -13.3951 H   0  0  0  0  0  0  0  0  0  0  0  0
   29.5532   41.0482  -11.1757 H   0  0  0  0  0  0  0  0  0  0  0  0
   29.3943   42.6163  -10.4051 H   0  0  0  0  0  0  0  0  0  0  0  0
   27.2459   40.9729  -11.6382 H   0  0  0  0  0  0  0  0  0  0  0  0
   25.5130   43.7964  -12.6515 H   0  0  0  0  0  0  0  0  0  0  0  0
   24.7624   44.5253  -11.2379 H   0  0  0  0  0  0  0  0  0  0  0  0
   23.8352   43.4547  -12.2837 H   0  0  0  0  0  0  0  0  0  0  0  0
   24.8605   41.7883   -8.9253 H   0  0  0  0  0  0  0  0  0  0  0  0
   23.8294   43.0740   -9.4682 H   0  0  0  0  0  0  0  0  0  0  0  0
   20.8198   39.7103  -10.1429 H   0  0  0  0  0  0  0  0  0  0  0  0
   21.9974   38.6887   -9.3754 H   0  0  0  0  0  0  0  0  0  0  0  0
   18.8441   38.6319   -9.5757 H   0  0  0  0  0  0  0  0  0  0  0  0
   19.7157   37.2976   -8.9044 H   0  0  0  0  0  0  0  0  0  0  0  0
   17.3274   37.3401   -8.2063 H   0  0  0  0  0  0  0  0  0  0  0  0
   18.4035   37.3517   -6.8490 H   0  0  0  0  0  0  0  0  0  0  0  0
   16.5369   38.8665   -6.4640 H   0  0  0  0  0  0  0  0  0  0  0  0
   18.0391   39.7499   -6.4859 H   0  0  0  0  0  0  0  0  0  0  0  0
   17.5367   40.4206   -8.8932 H   0  0  0  0  0  0  0  0  0  0  0  0
   16.0144   39.5958   -8.7607 H   0  0  0  0  0  0  0  0  0  0  0  0
   15.2579   41.1298   -6.9772 H   0  0  0  0  0  0  0  0  0  0  0  0
   16.8149   41.8383   -6.8405 H   0  0  0  0  0  0  0  0  0  0  0  0
   18.7142   42.2332   -8.7381 H   0  0  0  0  0  0  0  0  0  0  0  0
   20.9228   44.9326   -6.2296 H   0  0  0  0  0  0  0  0  0  0  0  0
   16.8184   45.7882   -7.2401 H   0  0  0  0  0  0  0  0  0  0  0  0
   19.8838   48.3245   -5.2408 H   0  0  0  0  0  0  0  0  0  0  0  0
   20.8824   46.9130   -5.4330 H   0  0  0  0  0  0  0  0  0  0  0  0
   21.4023   48.6101   -7.1881 H   0  0  0  0  0  0  0  0  0  0  0  0
   19.7163   48.6772   -7.6983 H   0  0  0  0  0  0  0  0  0  0  0  0
   20.6794   47.2210   -7.9907 H   0  0  0  0  0  0  0  0  0  0  0  0
   20.7879   42.2364   -9.4881 H   0  0  0  0  0  0  0  0  0  0  0  0
   14.0603   41.1382   -8.8789 H   0  0  0  0  0  0  0  0  0  0  0  0
   13.7802   42.8145   -9.2183 H   0  0  0  0  0  0  0  0  0  0  0  0
   13.8552   41.4286  -11.2971 H   0  0  0  0  0  0  0  0  0  0  0  0
   15.4992   40.9190  -10.9291 H   0  0  0  0  0  0  0  0  0  0  0  0
   15.1665   42.6037  -11.3299 H   0  0  0  0  0  0  0  0  0  0  0  0
   21.5091   37.7501   -7.0049 H   0  0  0  0  0  0  0  0  0  0  0  0
   20.2657   38.5450   -6.0399 H   0  0  0  0  0  0  0  0  0  0  0  0
   21.7264   39.4116   -6.4465 H   0  0  0  0  0  0  0  0  0  0  0  0
   23.0059   41.3176  -12.0044 H   0  0  0  0  0  0  0  0  0  0  0  0
  1  2  1  0  0  0  0
  1 43  1  0  0  0  0
  1 44  1  0  0  0  0
  1 45  1  0  0  0  0
  2  3  1  0  0  0  0
  2 46  1  0  0  0  0
  2 47  1  0  0  0  0
  3  4  1  0  0  0  0
  3 48  1  0  0  0  0
  3 49  1  0  0  0  0
  4  5  1  0  0  0  0
  4 50  1  0  0  0  0
  4 51  1  0  0  0  0
  5  6  1  0  0  0  0
  5 52  1  0  0  0  0
  6  7  2  0  0  0  0
  6  8  1  0  0  0  0
  8 39  1  6  0  0  0
  8  9  1  0  0  0  0
  8 10  1  0  0  0  0
  9 53  1  0  0  0  0
  9 54  1  0  0  0  0
  9 55  1  0  0  0  0
 10 11  1  0  0  0  0
 10 56  1  0  0  0  0
 10 57  1  0  0  0  0
 11 40  1  6  0  0  0
 11 12  1  0  0  0  0
 11 38  1  0  0  0  0
 12 41  1  1  0  0  0
 12 34  1  0  0  0  0
 12 13  1  0  0  0  0
 13 14  1  0  0  0  0
 13 58  1  0  0  0  0
 13 59  1  0  0  0  0
 14 42  1  1  0  0  0
 14 15  1  0  0  0  0
 14 37  1  0  0  0  0
 15 16  1  0  0  0  0
 15 60  1  0  0  0  0
 15 61  1  0  0  0  0
 16 17  1  0  0  0  0
 16 62  1  0  0  0  0
 16 63  1  0  0  0  0
 17 18  1  0  0  0  0
 17 64  1  0  0  0  0
 17 65  1  0  0  0  0
 18 19  1  0  0  0  0
 18 66  1  0  0  0  0
 18 67  1  0  0  0  0
 19 20  1  0  0  0  0
 19 68  1  0  0  0  0
 19 69  1  0  0  0  0
 20 21  1  0  0  0  0
 20 35  1  0  0  0  0
 21 22  2  0  0  0  0
 21 23  1  0  0  0  0
 23 28  1  0  0  0  0
 23 24  2  0  0  0  0
 24 25  1  0  0  0  0
 24 70  1  0  0  0  0
 25 26  2  0  0  0  0
 25 32  1  0  0  0  0
 26 27  1  0  0  0  0
 26 71  1  0  0  0  0
 27 28  2  0  0  0  0
 27 29  1  0  0  0  0
 28 72  1  0  0  0  0
 29 30  1  0  0  0  0
 30 31  1  0  0  0  0
 30 73  1  0  0  0  0
 30 74  1  0  0  0  0
 31 75  1  0  0  0  0
 31 76  1  0  0  0  0
 31 77  1  0  0  0  0
 32 33  2  0  0  0  0
 32 34  1  0  0  0  0
 34 78  1  0  0  0  0
 35 36  1  0  0  0  0
 35 79  1  0  0  0  0
 35 80  1  0  0  0  0
 36 81  1  0  0  0  0
 36 82  1  0  0  0  0
 36 83  1  0  0  0  0
 37 84  1  0  0  0  0
 37 85  1  0  0  0  0
 37 86  1  0  0  0  0
 38 87  1  0  0  0  0
M  END
