BACE_2.smi:1
 OpenBabel09281823033D
Structure written by MMmdl.
 96 98  0  0  1  0  0  0  0  0999 V2000
   19.6636   39.2560   -7.9177 C   0  0  0  0  0  0  0  0  0  0  0  0
   19.8443   39.5011   -6.5426 C   0  0  0  0  0  0  0  0  0  0  0  0
   20.8544   40.3816   -6.1113 C   0  0  0  0  0  0  0  0  0  0  0  0
   21.0504   40.6470   -4.6255 C   0  0  0  0  0  0  0  0  0  0  0  0
   22.3548   40.0267   -4.0941 C   0  0  0  0  0  0  0  0  0  0  0  0
   20.9480   42.1449   -4.2869 C   0  0  0  0  0  0  0  0  0  0  0  0
   21.6866   41.0127   -7.0554 C   0  0  0  0  0  0  0  0  0  0  0  0
   21.5090   40.7677   -8.4328 C   0  0  0  0  0  0  0  0  0  0  0  0
   20.4837   39.8915   -8.8710 C   0  0  0  0  0  0  0  0  0  0  0  0
   22.4229   41.4429   -9.4393 C   0  0  2  0  0  0  0  0  0  0  0  0
   22.3096   40.7957  -10.8220 C   0  0  0  0  0  0  0  0  0  0  0  0
   20.8386   40.5160  -11.1468 C   0  0  0  0  0  0  0  0  0  0  0  0
   20.2725   39.6093  -10.2025 O   0  0  0  0  0  0  0  0  0  0  0  0
   20.0326   41.8118  -11.1581 C   0  0  0  0  0  0  0  0  0  0  0  0
   20.7160   39.9076  -12.5409 C   0  0  0  0  0  0  0  0  0  0  0  0
   23.8163   41.4032   -8.9694 N   0  3  0  0  0  0  0  0  0  0  0  0
   24.4983   42.7063   -8.7734 C   0  0  0  0  0  0  0  0  0  0  0  0
   23.7323   43.6670   -7.8302 C   0  0  1  0  0  0  0  0  0  0  0  0
   23.2803   42.9409   -6.7016 O   0  0  0  0  0  0  0  0  0  0  0  0
   24.5890   44.8834   -7.3637 C   0  0  1  0  0  0  0  0  0  0  0  0
   23.7517   45.8655   -6.6628 N   0  0  0  0  0  0  0  0  0  0  0  0
   23.8671   47.1930   -6.6737 C   0  0  0  0  0  0  0  0  0  0  0  0
   24.7766   47.7791   -7.2373 O   0  0  0  0  0  0  0  0  0  0  0  0
   22.7499   47.9671   -5.9383 C   0  0  2  0  0  0  0  0  0  0  0  0
   21.7984   48.6375   -6.9253 C   0  0  0  0  0  0  0  0  0  0  0  0
   25.8234   44.5062   -6.4921 C   0  0  0  0  0  0  0  0  0  0  0  0
   27.1145   45.2576   -6.8793 C   0  0  2  0  0  0  0  0  0  0  0  0
   27.4755   44.8875   -8.3151 C   0  0  0  0  0  0  0  0  0  0  0  0
   28.3281   44.9454   -5.9771 C   0  0  0  0  0  0  0  0  0  0  0  0
   28.2380   45.4784   -4.5301 C   0  0  0  0  0  0  0  0  0  0  0  0
   28.0964   47.0099   -4.4405 C   0  0  0  0  0  0  0  0  0  0  0  0
   28.1719   47.5507   -2.9995 C   0  0  0  0  0  0  0  0  0  0  0  0
   28.0380   49.0875   -2.9063 C   0  0  0  0  0  0  0  0  0  0  0  0
   26.6530   49.6474   -3.2964 C   0  0  0  0  0  0  0  0  0  0  0  0
   25.5504   49.3748   -2.2515 C   0  0  0  0  0  0  0  0  0  0  0  0
   24.1222   49.6704   -2.7693 C   0  0  0  0  0  0  0  0  0  0  0  0
   23.5610   48.5794   -3.6886 C   0  0  0  0  0  0  0  0  0  0  0  0
   23.3710   47.4605   -3.2410 O   0  0  0  0  0  0  0  0  0  0  0  0
   23.2929   48.9299   -4.9556 N   0  0  0  0  0  0  0  0  0  0  0  0
   23.5843   50.2904   -5.3605 C   0  0  0  0  0  0  0  0  0  0  0  0
   22.1385   42.4933   -9.5000 H   0  0  0  0  0  0  0  0  0  0  0  0
   22.8563   44.0363   -8.3653 H   0  0  0  0  0  0  0  0  0  0  0  0
   24.9619   45.3688   -8.2656 H   0  0  0  0  0  0  0  0  0  0  0  0
   22.1460   47.2322   -5.4060 H   0  0  0  0  0  0  0  0  0  0  0  0
   26.9368   46.3327   -6.9023 H   0  0  0  0  0  0  0  0  0  0  0  0
   18.8876   38.5784   -8.2419 H   0  0  0  0  0  0  0  0  0  0  0  0
   19.2080   39.0128   -5.8195 H   0  0  0  0  0  0  0  0  0  0  0  0
   20.2350   40.1539   -4.0946 H   0  0  0  0  0  0  0  0  0  0  0  0
   22.3851   38.9534   -4.2853 H   0  0  0  0  0  0  0  0  0  0  0  0
   22.4439   40.1663   -3.0163 H   0  0  0  0  0  0  0  0  0  0  0  0
   23.2373   40.4716   -4.5546 H   0  0  0  0  0  0  0  0  0  0  0  0
   19.9922   42.5563   -4.6133 H   0  0  0  0  0  0  0  0  0  0  0  0
   21.7395   42.7269   -4.7596 H   0  0  0  0  0  0  0  0  0  0  0  0
   21.0207   42.3088   -3.2112 H   0  0  0  0  0  0  0  0  0  0  0  0
   22.4638   41.6827   -6.7187 H   0  0  0  0  0  0  0  0  0  0  0  0
   22.7649   41.4336  -11.5796 H   0  0  0  0  0  0  0  0  0  0  0  0
   22.8586   39.8542  -10.8342 H   0  0  0  0  0  0  0  0  0  0  0  0
   20.4222   42.5131  -11.8970 H   0  0  0  0  0  0  0  0  0  0  0  0
   20.0379   42.3204  -10.1945 H   0  0  0  0  0  0  0  0  0  0  0  0
   18.9883   41.6223  -11.4090 H   0  0  0  0  0  0  0  0  0  0  0  0
   21.1401   40.5630  -13.3026 H   0  0  0  0  0  0  0  0  0  0  0  0
   19.6734   39.7278  -12.8059 H   0  0  0  0  0  0  0  0  0  0  0  0
   21.2335   38.9497  -12.6061 H   0  0  0  0  0  0  0  0  0  0  0  0
   23.8024   40.9413   -8.0714 H   0  0  0  0  0  0  0  0  0  0  0  0
   25.5374   42.5671   -8.4716 H   0  0  0  0  0  0  0  0  0  0  0  0
   24.5358   43.1517   -9.7678 H   0  0  0  0  0  0  0  0  0  0  0  0
   22.7791   43.5233   -6.1515 H   0  0  0  0  0  0  0  0  0  0  0  0
   22.9619   45.4935   -6.1551 H   0  0  0  0  0  0  0  0  0  0  0  0
   21.3823   47.9145   -7.6282 H   0  0  0  0  0  0  0  0  0  0  0  0
   22.2944   49.4146   -7.5078 H   0  0  0  0  0  0  0  0  0  0  0  0
   20.9572   49.1019   -6.4096 H   0  0  0  0  0  0  0  0  0  0  0  0
   25.5931   44.6475   -5.4362 H   0  0  0  0  0  0  0  0  0  0  0  0
   26.0105   43.4379   -6.6004 H   0  0  0  0  0  0  0  0  0  0  0  0
   28.3938   45.3766   -8.6388 H   0  0  0  0  0  0  0  0  0  0  0  0
   26.7013   45.1892   -9.0195 H   0  0  0  0  0  0  0  0  0  0  0  0
   27.6219   43.8126   -8.4268 H   0  0  0  0  0  0  0  0  0  0  0  0
   28.4624   43.8643   -5.9386 H   0  0  0  0  0  0  0  0  0  0  0  0
   29.2337   45.3301   -6.4462 H   0  0  0  0  0  0  0  0  0  0  0  0
   29.1069   45.1552   -3.9567 H   0  0  0  0  0  0  0  0  0  0  0  0
   27.3794   45.0122   -4.0468 H   0  0  0  0  0  0  0  0  0  0  0  0
   28.8709   47.4838   -5.0435 H   0  0  0  0  0  0  0  0  0  0  0  0
   27.1435   47.2973   -4.8849 H   0  0  0  0  0  0  0  0  0  0  0  0
   29.1296   47.2609   -2.5672 H   0  0  0  0  0  0  0  0  0  0  0  0
   27.4158   47.0665   -2.3814 H   0  0  0  0  0  0  0  0  0  0  0  0
   28.2819   49.4109   -1.8944 H   0  0  0  0  0  0  0  0  0  0  0  0
   28.7964   49.5429   -3.5430 H   0  0  0  0  0  0  0  0  0  0  0  0
   26.3586   49.2628   -4.2729 H   0  0  0  0  0  0  0  0  0  0  0  0
   26.7355   50.7256   -3.4340 H   0  0  0  0  0  0  0  0  0  0  0  0
   25.6026   48.3485   -1.8881 H   0  0  0  0  0  0  0  0  0  0  0  0
   25.7472   49.9940   -1.3763 H   0  0  0  0  0  0  0  0  0  0  0  0
   24.0869   50.6460   -3.2541 H   0  0  0  0  0  0  0  0  0  0  0  0
   23.4359   49.7451   -1.9258 H   0  0  0  0  0  0  0  0  0  0  0  0
   23.2192   50.5359   -6.3559 H   0  0  0  0  0  0  0  0  0  0  0  0
   24.6580   50.4814   -5.3559 H   0  0  0  0  0  0  0  0  0  0  0  0
   23.0962   51.0088   -4.7006 H   0  0  0  0  0  0  0  0  0  0  0  0
   24.3642   40.8379   -9.6021 H   0  0  0  0  0  0  0  0  0  0  0  0
  1  9  1  0  0  0  0
  1  2  2  0  0  0  0
  1 46  1  0  0  0  0
  2  3  1  0  0  0  0
  2 47  1  0  0  0  0
  3  4  1  0  0  0  0
  3  7  2  0  0  0  0
  4  5  1  0  0  0  0
  4  6  1  0  0  0  0
  4 48  1  0  0  0  0
  5 49  1  0  0  0  0
  5 50  1  0  0  0  0
  5 51  1  0  0  0  0
  6 52  1  0  0  0  0
  6 53  1  0  0  0  0
  6 54  1  0  0  0  0
  7  8  1  0  0  0  0
  7 55  1  0  0  0  0
  8  9  2  0  0  0  0
  8 10  1  0  0  0  0
  9 13  1  0  0  0  0
 10 41  1  6  0  0  0
 10 11  1  0  0  0  0
 10 16  1  0  0  0  0
 11 12  1  0  0  0  0
 11 56  1  0  0  0  0
 11 57  1  0  0  0  0
 12 13  1  0  0  0  0
 12 14  1  0  0  0  0
 12 15  1  0  0  0  0
 14 58  1  0  0  0  0
 14 59  1  0  0  0  0
 14 60  1  0  0  0  0
 15 61  1  0  0  0  0
 15 62  1  0  0  0  0
 15 63  1  0  0  0  0
 16 17  1  0  0  0  0
 16 64  1  0  0  0  0
 16 96  1  0  0  0  0
 17 18  1  0  0  0  0
 17 65  1  0  0  0  0
 17 66  1  0  0  0  0
 18 42  1  6  0  0  0
 18 19  1  0  0  0  0
 18 20  1  0  0  0  0
 19 67  1  0  0  0  0
 20 43  1  6  0  0  0
 20 21  1  0  0  0  0
 20 26  1  0  0  0  0
 21 22  1  0  0  0  0
 21 68  1  0  0  0  0
 22 23  2  0  0  0  0
 22 24  1  0  0  0  0
 24 44  1  1  0  0  0
 24 39  1  0  0  0  0
 24 25  1  0  0  0  0
 25 69  1  0  0  0  0
 25 70  1  0  0  0  0
 25 71  1  0  0  0  0
 26 27  1  0  0  0  0
 26 72  1  0  0  0  0
 26 73  1  0  0  0  0
 27 45  1  1  0  0  0
 27 28  1  0  0  0  0
 27 29  1  0  0  0  0
 28 74  1  0  0  0  0
 28 75  1  0  0  0  0
 28 76  1  0  0  0  0
 29 30  1  0  0  0  0
 29 77  1  0  0  0  0
 29 78  1  0  0  0  0
 30 31  1  0  0  0  0
 30 79  1  0  0  0  0
 30 80  1  0  0  0  0
 31 32  1  0  0  0  0
 31 81  1  0  0  0  0
 31 82  1  0  0  0  0
 32 33  1  0  0  0  0
 32 83  1  0  0  0  0
 32 84  1  0  0  0  0
 33 34  1  0  0  0  0
 33 85  1  0  0  0  0
 33 86  1  0  0  0  0
 34 35  1  0  0  0  0
 34 87  1  0  0  0  0
 34 88  1  0  0  0  0
 35 36  1  0  0  0  0
 35 89  1  0  0  0  0
 35 90  1  0  0  0  0
 36 37  1  0  0  0  0
 36 91  1  0  0  0  0
 36 92  1  0  0  0  0
 37 38  2  0  0  0  0
 37 39  1  0  0  0  0
 39 40  1  0  0  0  0
 40 93  1  0  0  0  0
 40 94  1  0  0  0  0
 40 95  1  0  0  0  0
M  CHG  1  16   1
M  END
