BACE_10.smi:1
 OpenBabel09281823033D
Structure written by MMmdl.
 86 88  0  0  1  0  0  0  0  0999 V2000
   20.4445   38.7804   -6.9980 C   0  0  0  0  0  0  0  0  0  0  0  0
   19.8621   39.5060   -8.2246 C   0  0  2  0  0  0  0  0  0  0  0  0
   19.2795   38.4880   -9.2379 C   0  0  0  0  0  0  0  0  0  0  0  0
   17.9300   37.8976   -8.8036 C   0  0  0  0  0  0  0  0  0  0  0  0
   17.0552   38.9916   -8.6107 O   0  0  0  0  0  0  0  0  0  0  0  0
   15.7307   38.6412   -8.2589 C   0  0  0  0  0  0  0  0  0  0  0  0
   15.1190   39.8104   -7.4756 C   0  0  0  0  0  0  0  0  0  0  0  0
   15.3058   41.1781   -8.1540 C   0  0  0  0  0  0  0  0  0  0  0  0
   14.7202   41.2350   -9.5727 C   0  0  0  0  0  0  0  0  0  0  0  0
   14.8689   42.5526  -10.1730 N   0  0  0  0  0  0  0  0  0  0  0  0
   16.0425   42.9516  -10.8281 C   0  0  0  0  0  0  0  0  0  0  0  0
   16.0775   44.2597  -11.3491 C   0  0  0  0  0  0  0  0  0  0  0  0
   17.1918   44.7162  -12.0789 C   0  0  0  0  0  0  0  0  0  0  0  0
   18.2878   43.8554  -12.2820 C   0  0  0  0  0  0  0  0  0  0  0  0
   18.2805   42.5497  -11.7500 C   0  0  0  0  0  0  0  0  0  0  0  0
   17.1609   42.1014  -11.0159 C   0  0  0  0  0  0  0  0  0  0  0  0
   19.4072   41.6139  -12.0704 C   0  0  0  0  0  0  0  0  0  0  0  0
   19.6602   41.3500  -13.2400 O   0  0  0  0  0  0  0  0  0  0  0  0
   20.1281   41.0681  -11.0820 N   0  0  0  0  0  0  0  0  0  0  0  0
   20.3612   41.5981   -9.7394 C   0  0  1  0  0  0  0  0  0  0  0  0
   20.9161   40.4624   -8.8318 C   0  0  0  0  0  0  0  0  0  0  0  0
   21.3425   42.8190   -9.7824 C   0  0  1  0  0  0  0  0  0  0  0  0
   22.4422   42.8197  -10.8809 C   0  0  0  0  0  0  0  0  0  0  0  0
   23.3046   41.6206  -10.8387 N   0  3  0  0  0  0  0  0  0  0  0  0
   24.2898   41.5825   -9.7360 C   0  0  0  0  0  0  0  0  0  0  0  0
   25.5938   42.2540  -10.1056 C   0  0  0  0  0  0  0  0  0  0  0  0
   26.5435   41.5586  -10.8803 C   0  0  0  0  0  0  0  0  0  0  0  0
   27.7756   42.1597  -11.1955 C   0  0  0  0  0  0  0  0  0  0  0  0
   28.0646   43.4574  -10.7319 C   0  0  0  0  0  0  0  0  0  0  0  0
   27.1217   44.1621   -9.9522 C   0  0  0  0  0  0  0  0  0  0  0  0
   25.8847   43.5541   -9.6428 C   0  0  0  0  0  0  0  0  0  0  0  0
   27.4493   45.5569   -9.4359 C   0  0  0  0  0  0  0  0  0  0  0  0
   27.5740   45.5731   -7.9042 C   0  0  0  0  0  0  0  0  0  0  0  0
   26.4374   46.6002   -9.9337 C   0  0  0  0  0  0  0  0  0  0  0  0
   20.5943   44.0095   -9.9186 O   0  0  0  0  0  0  0  0  0  0  0  0
   17.2215   46.1316  -12.6264 C   0  0  0  0  0  0  0  0  0  0  0  0
   15.9396   46.5695  -13.0575 O   0  0  0  0  0  0  0  0  0  0  0  0
   15.9719   47.8787  -13.5986 C   0  0  0  0  0  0  0  0  0  0  0  0
   19.0541   40.1376   -7.8515 H   0  0  0  0  0  0  0  0  0  0  0  0
   19.4161   41.9233   -9.3010 H   0  0  0  0  0  0  0  0  0  0  0  0
   21.8188   42.9275   -8.8081 H   0  0  0  0  0  0  0  0  0  0  0  0
   21.2902   38.1494   -7.2712 H   0  0  0  0  0  0  0  0  0  0  0  0
   19.6994   38.1491   -6.5142 H   0  0  0  0  0  0  0  0  0  0  0  0
   20.7899   39.4891   -6.2453 H   0  0  0  0  0  0  0  0  0  0  0  0
   19.1077   38.9550  -10.2033 H   0  0  0  0  0  0  0  0  0  0  0  0
   19.9963   37.6868   -9.4192 H   0  0  0  0  0  0  0  0  0  0  0  0
   17.5390   37.2349   -9.5772 H   0  0  0  0  0  0  0  0  0  0  0  0
   18.0258   37.3166   -7.8854 H   0  0  0  0  0  0  0  0  0  0  0  0
   15.1598   38.4147   -9.1597 H   0  0  0  0  0  0  0  0  0  0  0  0
   15.7068   37.7498   -7.6400 H   0  0  0  0  0  0  0  0  0  0  0  0
   14.0599   39.6162   -7.3082 H   0  0  0  0  0  0  0  0  0  0  0  0
   15.5712   39.8493   -6.4834 H   0  0  0  0  0  0  0  0  0  0  0  0
   14.8368   41.9399   -7.5295 H   0  0  0  0  0  0  0  0  0  0  0  0
   16.3668   41.4262   -8.1803 H   0  0  0  0  0  0  0  0  0  0  0  0
   15.1622   40.4762  -10.2174 H   0  0  0  0  0  0  0  0  0  0  0  0
   13.6594   40.9984   -9.5358 H   0  0  0  0  0  0  0  0  0  0  0  0
   14.1280   43.2187  -10.0157 H   0  0  0  0  0  0  0  0  0  0  0  0
   15.2352   44.9207  -11.2023 H   0  0  0  0  0  0  0  0  0  0  0  0
   19.1447   44.2034  -12.8398 H   0  0  0  0  0  0  0  0  0  0  0  0
   17.1623   41.0909  -10.6332 H   0  0  0  0  0  0  0  0  0  0  0  0
   20.7198   40.3034  -11.3678 H   0  0  0  0  0  0  0  0  0  0  0  0
   21.4287   40.9297   -7.9905 H   0  0  0  0  0  0  0  0  0  0  0  0
   21.6826   39.8826   -9.3470 H   0  0  0  0  0  0  0  0  0  0  0  0
   21.9893   42.8733  -11.8713 H   0  0  0  0  0  0  0  0  0  0  0  0
   23.0651   43.7118  -10.7946 H   0  0  0  0  0  0  0  0  0  0  0  0
   22.7034   40.8174  -10.7382 H   0  0  0  0  0  0  0  0  0  0  0  0
   23.8861   42.0036   -8.8152 H   0  0  0  0  0  0  0  0  0  0  0  0
   24.5114   40.5469   -9.5056 H   0  0  0  0  0  0  0  0  0  0  0  0
   26.3392   40.5572  -11.2340 H   0  0  0  0  0  0  0  0  0  0  0  0
   28.5025   41.6187  -11.7858 H   0  0  0  0  0  0  0  0  0  0  0  0
   29.0163   43.9068  -10.9727 H   0  0  0  0  0  0  0  0  0  0  0  0
   25.1653   44.0826   -9.0350 H   0  0  0  0  0  0  0  0  0  0  0  0
   28.4229   45.8396   -9.8393 H   0  0  0  0  0  0  0  0  0  0  0  0
   28.3390   44.8725   -7.5678 H   0  0  0  0  0  0  0  0  0  0  0  0
   26.6367   45.2977   -7.4200 H   0  0  0  0  0  0  0  0  0  0  0  0
   27.8548   46.5626   -7.5436 H   0  0  0  0  0  0  0  0  0  0  0  0
   26.3894   46.6065  -11.0242 H   0  0  0  0  0  0  0  0  0  0  0  0
   26.7189   47.6023   -9.6119 H   0  0  0  0  0  0  0  0  0  0  0  0
   25.4329   46.4031   -9.5579 H   0  0  0  0  0  0  0  0  0  0  0  0
   19.9580   44.0555   -9.2186 H   0  0  0  0  0  0  0  0  0  0  0  0
   17.5975   46.7950  -11.8454 H   0  0  0  0  0  0  0  0  0  0  0  0
   17.9274   46.1800  -13.4572 H   0  0  0  0  0  0  0  0  0  0  0  0
   14.9718   48.1668  -13.9232 H   0  0  0  0  0  0  0  0  0  0  0  0
   16.6323   47.9305  -14.4646 H   0  0  0  0  0  0  0  0  0  0  0  0
   16.3095   48.6041  -12.8572 H   0  0  0  0  0  0  0  0  0  0  0  0
   23.7939   41.5117  -11.7246 H   0  0  0  0  0  0  0  0  0  0  0  0
  1  2  1  0  0  0  0
  1 42  1  0  0  0  0
  1 43  1  0  0  0  0
  1 44  1  0  0  0  0
  2 39  1  1  0  0  0
  2 21  1  0  0  0  0
  2  3  1  0  0  0  0
  3  4  1  0  0  0  0
  3 45  1  0  0  0  0
  3 46  1  0  0  0  0
  4  5  1  0  0  0  0
  4 47  1  0  0  0  0
  4 48  1  0  0  0  0
  5  6  1  0  0  0  0
  6  7  1  0  0  0  0
  6 49  1  0  0  0  0
  6 50  1  0  0  0  0
  7  8  1  0  0  0  0
  7 51  1  0  0  0  0
  7 52  1  0  0  0  0
  8  9  1  0  0  0  0
  8 53  1  0  0  0  0
  8 54  1  0  0  0  0
  9 10  1  0  0  0  0
  9 55  1  0  0  0  0
  9 56  1  0  0  0  0
 10 11  1  0  0  0  0
 10 57  1  0  0  0  0
 11 16  1  0  0  0  0
 11 12  2  0  0  0  0
 12 13  1  0  0  0  0
 12 58  1  0  0  0  0
 13 14  2  0  0  0  0
 13 36  1  0  0  0  0
 14 15  1  0  0  0  0
 14 59  1  0  0  0  0
 15 16  2  0  0  0  0
 15 17  1  0  0  0  0
 16 60  1  0  0  0  0
 17 18  2  0  0  0  0
 17 19  1  0  0  0  0
 19 20  1  0  0  0  0
 19 61  1  0  0  0  0
 20 40  1  1  0  0  0
 20 21  1  0  0  0  0
 20 22  1  0  0  0  0
 21 62  1  0  0  0  0
 21 63  1  0  0  0  0
 22 41  1  1  0  0  0
 22 23  1  0  0  0  0
 22 35  1  0  0  0  0
 23 24  1  0  0  0  0
 23 64  1  0  0  0  0
 23 65  1  0  0  0  0
 24 25  1  0  0  0  0
 24 66  1  0  0  0  0
 24 86  1  0  0  0  0
 25 26  1  0  0  0  0
 25 67  1  0  0  0  0
 25 68  1  0  0  0  0
 26 31  1  0  0  0  0
 26 27  2  0  0  0  0
 27 28  1  0  0  0  0
 27 69  1  0  0  0  0
 28 29  2  0  0  0  0
 28 70  1  0  0  0  0
 29 30  1  0  0  0  0
 29 71  1  0  0  0  0
 30 31  2  0  0  0  0
 30 32  1  0  0  0  0
 31 72  1  0  0  0  0
 32 33  1  0  0  0  0
 32 34  1  0  0  0  0
 32 73  1  0  0  0  0
 33 74  1  0  0  0  0
 33 75  1  0  0  0  0
 33 76  1  0  0  0  0
 34 77  1  0  0  0  0
 34 78  1  0  0  0  0
 34 79  1  0  0  0  0
 35 80  1  0  0  0  0
 36 37  1  0  0  0  0
 36 81  1  0  0  0  0
 36 82  1  0  0  0  0
 37 38  1  0  0  0  0
 38 83  1  0  0  0  0
 38 84  1  0  0  0  0
 38 85  1  0  0  0  0
M  CHG  1  24   1
M  END
