BACE_19.smi:1
 OpenBabel09281823033D
Structure written by MMmdl.
 76 77  0  0  1  0  0  0  0  0999 V2000
   20.9537   40.8680   -3.4291 C   0  0  0  0  0  0  0  0  0  0  0  0
   20.9253   41.6064   -4.7748 C   0  0  0  0  0  0  0  0  0  0  0  0
   20.8458   40.6658   -5.9909 C   0  0  0  0  0  0  0  0  0  0  0  0
   22.1715   39.9219   -6.2770 C   0  0  0  0  0  0  0  0  0  0  0  0
   22.8669   40.2979   -7.5148 N   0  0  0  0  0  0  0  0  0  0  0  0
   23.1767   41.5401   -7.9281 C   0  0  0  0  0  0  0  0  0  0  0  0
   22.7515   42.5602   -7.3879 O   0  0  0  0  0  0  0  0  0  0  0  0
   24.1360   41.6576   -9.1236 C   0  0  2  0  0  0  0  0  0  0  0  0
   24.9948   42.9358   -9.0175 C   0  0  0  0  0  0  0  0  0  0  0  0
   23.4812   41.5257  -10.5284 C   0  0  0  0  0  0  0  0  0  0  0  0
   22.0484   42.0706  -10.7967 C   0  0  1  0  0  0  0  0  0  0  0  0
   20.8649   41.1966  -10.2871 C   0  0  2  0  0  0  0  0  0  0  0  0
   20.8554   39.7412  -10.8498 C   0  0  0  0  0  0  0  0  0  0  0  0
   19.7787   38.7562  -10.3241 C   0  0  1  0  0  0  0  0  0  0  0  0
   19.7538   38.6530   -8.7746 C   0  0  0  0  0  0  0  0  0  0  0  0
   18.6068   37.8499   -8.1165 C   0  0  0  0  0  0  0  0  0  0  0  0
   17.2590   38.5391   -8.2144 C   0  0  0  0  0  0  0  0  0  0  0  0
   16.1671   37.8920   -8.8326 C   0  0  0  0  0  0  0  0  0  0  0  0
   14.9669   38.5917   -9.0469 C   0  0  0  0  0  0  0  0  0  0  0  0
   14.8597   39.9369   -8.6516 C   0  0  0  0  0  0  0  0  0  0  0  0
   15.9323   40.5770   -8.0002 C   0  0  0  0  0  0  0  0  0  0  0  0
   17.1182   39.8637   -7.7548 C   0  0  0  0  0  0  0  0  0  0  0  0
   15.8117   42.0222   -7.5618 C   0  0  0  0  0  0  0  0  0  0  0  0
   16.9554   43.1461   -8.4853 S   0  0  0  0  0  0  0  0  0  0  0  0
   16.4878   44.5304   -8.3054 O   0  0  0  0  0  0  0  0  0  0  0  0
   18.3427   42.8071   -8.1313 O   0  0  0  0  0  0  0  0  0  0  0  0
   16.6772   42.6794  -10.2609 C   0  0  0  0  0  0  0  0  0  0  0  0
   17.7188   43.2409  -11.2678 C   0  0  2  0  0  0  0  0  0  0  0  0
   18.9315   42.3221  -11.4945 C   0  0  0  0  0  0  0  0  0  0  0  0
   19.2598   42.0206  -12.6412 O   0  0  0  0  0  0  0  0  0  0  0  0
   19.5878   41.9067  -10.4009 N   0  0  0  0  0  0  0  0  0  0  0  0
   18.1702   44.6903  -11.0125 C   0  0  0  0  0  0  0  0  0  0  0  0
   18.4222   39.0227  -10.9760 C   0  0  0  0  0  0  0  0  0  0  0  0
   21.9560   43.3911  -10.2898 O   0  0  0  0  0  0  0  0  0  0  0  0
   24.8421   40.8306   -9.0296 H   0  0  0  0  0  0  0  0  0  0  0  0
   21.9417   42.1514  -11.8793 H   0  0  0  0  0  0  0  0  0  0  0  0
   20.9749   41.1189   -9.2158 H   0  0  0  0  0  0  0  0  0  0  0  0
   20.0643   37.7698  -10.6882 H   0  0  0  0  0  0  0  0  0  0  0  0
   17.2077   43.2517  -12.2309 H   0  0  0  0  0  0  0  0  0  0  0  0
   20.9922   41.5764   -2.5999 H   0  0  0  0  0  0  0  0  0  0  0  0
   21.8229   40.2162   -3.3438 H   0  0  0  0  0  0  0  0  0  0  0  0
   20.0608   40.2551   -3.2974 H   0  0  0  0  0  0  0  0  0  0  0  0
   20.0590   42.2659   -4.7908 H   0  0  0  0  0  0  0  0  0  0  0  0
   21.7970   42.2573   -4.8594 H   0  0  0  0  0  0  0  0  0  0  0  0
   20.0505   39.9391   -5.8165 H   0  0  0  0  0  0  0  0  0  0  0  0
   20.5226   41.2388   -6.8591 H   0  0  0  0  0  0  0  0  0  0  0  0
   22.8577   40.0421   -5.4414 H   0  0  0  0  0  0  0  0  0  0  0  0
   21.9718   38.8518   -6.3360 H   0  0  0  0  0  0  0  0  0  0  0  0
   23.2462   39.5355   -8.0593 H   0  0  0  0  0  0  0  0  0  0  0  0
   25.3933   43.0688   -8.0118 H   0  0  0  0  0  0  0  0  0  0  0  0
   24.4194   43.8300   -9.2609 H   0  0  0  0  0  0  0  0  0  0  0  0
   25.8460   42.8940   -9.6990 H   0  0  0  0  0  0  0  0  0  0  0  0
   24.1436   42.0333  -11.2296 H   0  0  0  0  0  0  0  0  0  0  0  0
   23.5481   40.4856  -10.8401 H   0  0  0  0  0  0  0  0  0  0  0  0
   20.8200   39.7769  -11.9394 H   0  0  0  0  0  0  0  0  0  0  0  0
   21.8100   39.2750  -10.6141 H   0  0  0  0  0  0  0  0  0  0  0  0
   20.6995   38.2117   -8.4603 H   0  0  0  0  0  0  0  0  0  0  0  0
   19.7406   39.6462   -8.3389 H   0  0  0  0  0  0  0  0  0  0  0  0
   18.5466   36.8484   -8.5404 H   0  0  0  0  0  0  0  0  0  0  0  0
   18.8228   37.7384   -7.0538 H   0  0  0  0  0  0  0  0  0  0  0  0
   16.2585   36.8698   -9.1668 H   0  0  0  0  0  0  0  0  0  0  0  0
   14.1285   38.1072   -9.5239 H   0  0  0  0  0  0  0  0  0  0  0  0
   13.9407   40.4667   -8.8414 H   0  0  0  0  0  0  0  0  0  0  0  0
   17.9364   40.3549   -7.2483 H   0  0  0  0  0  0  0  0  0  0  0  0
   14.7920   42.3827   -7.6764 H   0  0  0  0  0  0  0  0  0  0  0  0
   16.0592   42.0914   -6.5017 H   0  0  0  0  0  0  0  0  0  0  0  0
   16.6318   41.5954  -10.3263 H   0  0  0  0  0  0  0  0  0  0  0  0
   15.6813   43.0354  -10.5169 H   0  0  0  0  0  0  0  0  0  0  0  0
   19.1982   42.2183   -9.5135 H   0  0  0  0  0  0  0  0  0  0  0  0
   18.8072   45.0506  -11.8221 H   0  0  0  0  0  0  0  0  0  0  0  0
   18.7427   44.7824  -10.0896 H   0  0  0  0  0  0  0  0  0  0  0  0
   17.3159   45.3635  -10.9442 H   0  0  0  0  0  0  0  0  0  0  0  0
   17.9102   39.8563  -10.5104 H   0  0  0  0  0  0  0  0  0  0  0  0
   17.7827   38.1509  -10.8647 H   0  0  0  0  0  0  0  0  0  0  0  0
   18.5175   39.2410  -12.0397 H   0  0  0  0  0  0  0  0  0  0  0  0
   22.0589   43.3560   -9.3479 H   0  0  0  0  0  0  0  0  0  0  0  0
  1  2  1  0  0  0  0
  1 40  1  0  0  0  0
  1 41  1  0  0  0  0
  1 42  1  0  0  0  0
  2  3  1  0  0  0  0
  2 43  1  0  0  0  0
  2 44  1  0  0  0  0
  3  4  1  0  0  0  0
  3 45  1  0  0  0  0
  3 46  1  0  0  0  0
  4  5  1  0  0  0  0
  4 47  1  0  0  0  0
  4 48  1  0  0  0  0
  5  6  1  0  0  0  0
  5 49  1  0  0  0  0
  6  7  2  0  0  0  0
  6  8  1  0  0  0  0
  8 35  1  1  0  0  0
  8  9  1  0  0  0  0
  8 10  1  0  0  0  0
  9 50  1  0  0  0  0
  9 51  1  0  0  0  0
  9 52  1  0  0  0  0
 10 11  1  0  0  0  0
 10 53  1  0  0  0  0
 10 54  1  0  0  0  0
 11 36  1  6  0  0  0
 11 12  1  0  0  0  0
 11 34  1  0  0  0  0
 12 37  1  1  0  0  0
 12 31  1  0  0  0  0
 12 13  1  0  0  0  0
 13 14  1  0  0  0  0
 13 55  1  0  0  0  0
 13 56  1  0  0  0  0
 14 38  1  6  0  0  0
 14 15  1  0  0  0  0
 14 33  1  0  0  0  0
 15 16  1  0  0  0  0
 15 57  1  0  0  0  0
 15 58  1  0  0  0  0
 16 17  1  0  0  0  0
 16 59  1  0  0  0  0
 16 60  1  0  0  0  0
 17 22  1  0  0  0  0
 17 18  2  0  0  0  0
 18 19  1  0  0  0  0
 18 61  1  0  0  0  0
 19 20  2  0  0  0  0
 19 62  1  0  0  0  0
 20 21  1  0  0  0  0
 20 63  1  0  0  0  0
 21 22  2  0  0  0  0
 21 23  1  0  0  0  0
 22 64  1  0  0  0  0
 23 24  1  0  0  0  0
 23 65  1  0  0  0  0
 23 66  1  0  0  0  0
 24 25  2  0  0  0  0
 24 26  2  0  0  0  0
 24 27  1  0  0  0  0
 27 28  1  0  0  0  0
 27 67  1  0  0  0  0
 27 68  1  0  0  0  0
 28 39  1  6  0  0  0
 28 29  1  0  0  0  0
 28 32  1  0  0  0  0
 29 30  2  0  0  0  0
 29 31  1  0  0  0  0
 31 69  1  0  0  0  0
 32 70  1  0  0  0  0
 32 71  1  0  0  0  0
 32 72  1  0  0  0  0
 33 73  1  0  0  0  0
 33 74  1  0  0  0  0
 33 75  1  0  0  0  0
 34 76  1  0  0  0  0
M  END
