BACE_5.smi:1
 OpenBabel09281823033D
Structure written by MMmdl.
 79 80  0  0  1  0  0  0  0  0999 V2000
   22.4368   43.7798    0.8203 C   0  0  0  0  0  0  0  0  0  0  0  0
   20.9719   43.3240    0.8195 C   0  0  0  0  0  0  0  0  0  0  0  0
   20.2773   43.5093   -0.5341 C   0  0  0  0  0  0  0  0  0  0  0  0
   20.7062   42.5503   -1.5983 C   0  0  0  0  0  0  0  0  0  0  0  0
   21.7152   42.5907   -2.5182 C   0  0  0  0  0  0  0  0  0  0  0  0
   21.5710   41.3829   -3.2602 C   0  0  0  0  0  0  0  0  0  0  0  0
   20.5528   40.6525   -2.8405 N   0  0  0  0  0  0  0  0  0  0  0  0
   20.0562   41.3570   -1.8073 N   0  0  0  0  0  0  0  0  0  0  0  0
   22.4031   40.8973   -4.4104 C   0  0  0  0  0  0  0  0  0  0  0  0
   21.8665   41.3039   -5.7102 N   0  0  0  0  0  0  0  0  0  0  0  0
   21.9815   42.7329   -6.0137 C   0  0  0  0  0  0  0  0  0  0  0  0
   20.6378   43.5051   -5.9206 C   0  0  2  0  0  0  0  0  0  0  0  0
   19.7244   43.3283   -7.1699 C   0  0  2  0  0  0  0  0  0  0  0  0
   18.4896   44.2740   -7.2041 C   0  0  0  0  0  0  0  0  0  0  0  0
   18.1957   44.8703   -8.6045 C   0  0  1  0  0  0  0  0  0  0  0  0
   16.8002   45.5355   -8.6847 C   0  0  0  0  0  0  0  0  0  0  0  0
   15.5925   44.5875   -8.5688 C   0  0  0  0  0  0  0  0  0  0  0  0
   15.4409   43.5928   -9.7247 C   0  0  0  0  0  0  0  0  0  0  0  0
   14.1850   42.7242   -9.5536 C   0  0  0  0  0  0  0  0  0  0  0  0
   13.9473   41.7479  -10.7154 C   0  0  0  0  0  0  0  0  0  0  0  0
   14.8934   40.5402  -10.7060 C   0  0  0  0  0  0  0  0  0  0  0  0
   14.5152   39.6836   -9.6398 O   0  0  0  0  0  0  0  0  0  0  0  0
   15.4520   38.6636   -9.3218 C   0  0  0  0  0  0  0  0  0  0  0  0
   16.6053   39.2490   -8.4855 C   0  0  0  0  0  0  0  0  0  0  0  0
   16.3102   39.7730   -7.4106 O   0  0  0  0  0  0  0  0  0  0  0  0
   17.8898   39.1869   -8.9268 N   0  0  0  0  0  0  0  0  0  0  0  0
   18.9799   39.6568   -8.0346 C   0  0  2  0  0  0  0  0  0  0  0  0
   19.3216   41.1329   -8.3030 C   0  0  0  0  0  0  0  0  0  0  0  0
   19.6700   41.5071   -9.4235 O   0  0  0  0  0  0  0  0  0  0  0  0
   19.2606   41.9458   -7.2404 N   0  0  0  0  0  0  0  0  0  0  0  0
   20.2675   38.8144   -8.1917 C   0  0  0  0  0  0  0  0  0  0  0  0
   18.2200   38.7812  -10.3041 C   0  0  0  0  0  0  0  0  0  0  0  0
   19.2654   45.9050   -9.0075 C   0  0  0  0  0  0  0  0  0  0  0  0
   20.9947   44.8717   -5.8189 O   0  0  0  0  0  0  0  0  0  0  0  0
   19.2315   41.0458   -1.3002 H   0  0  0  0  0  0  0  0  0  0  0  0
   20.0992   43.2360   -5.0104 H   0  0  0  0  0  0  0  0  0  0  0  0
   20.3510   43.5275   -8.0385 H   0  0  0  0  0  0  0  0  0  0  0  0
   18.2338   44.0623   -9.3359 H   0  0  0  0  0  0  0  0  0  0  0  0
   18.6839   39.5416   -6.9881 H   0  0  0  0  0  0  0  0  0  0  0  0
   22.9332   43.5091    1.7536 H   0  0  0  0  0  0  0  0  0  0  0  0
   22.4982   44.8629    0.7103 H   0  0  0  0  0  0  0  0  0  0  0  0
   22.9984   43.3506   -0.0047 H   0  0  0  0  0  0  0  0  0  0  0  0
   20.4600   43.9340    1.5602 H   0  0  0  0  0  0  0  0  0  0  0  0
   20.8646   42.2934    1.1596 H   0  0  0  0  0  0  0  0  0  0  0  0
   20.4598   44.5356   -0.8400 H   0  0  0  0  0  0  0  0  0  0  0  0
   19.1960   43.4285   -0.4265 H   0  0  0  0  0  0  0  0  0  0  0  0
   22.4505   43.3702   -2.6528 H   0  0  0  0  0  0  0  0  0  0  0  0
   22.4584   39.8089   -4.3741 H   0  0  0  0  0  0  0  0  0  0  0  0
   23.4306   41.2448   -4.3014 H   0  0  0  0  0  0  0  0  0  0  0  0
   20.8883   41.0320   -5.7507 H   0  0  0  0  0  0  0  0  0  0  0  0
   22.3900   42.8547   -7.0165 H   0  0  0  0  0  0  0  0  0  0  0  0
   22.7180   43.1905   -5.3500 H   0  0  0  0  0  0  0  0  0  0  0  0
   17.6259   43.7214   -6.8368 H   0  0  0  0  0  0  0  0  0  0  0  0
   18.5990   45.0961   -6.4972 H   0  0  0  0  0  0  0  0  0  0  0  0
   16.7285   46.2933   -7.9037 H   0  0  0  0  0  0  0  0  0  0  0  0
   16.7123   46.0761   -9.6282 H   0  0  0  0  0  0  0  0  0  0  0  0
   14.6903   45.1945   -8.5042 H   0  0  0  0  0  0  0  0  0  0  0  0
   15.6361   44.0309   -7.6401 H   0  0  0  0  0  0  0  0  0  0  0  0
   15.3935   44.1335  -10.6709 H   0  0  0  0  0  0  0  0  0  0  0  0
   16.3217   42.9541   -9.7722 H   0  0  0  0  0  0  0  0  0  0  0  0
   13.3154   43.3766   -9.4664 H   0  0  0  0  0  0  0  0  0  0  0  0
   14.2408   42.1714   -8.6126 H   0  0  0  0  0  0  0  0  0  0  0  0
   12.9213   41.3865  -10.6485 H   0  0  0  0  0  0  0  0  0  0  0  0
   14.0271   42.2844  -11.6590 H   0  0  0  0  0  0  0  0  0  0  0  0
   15.9275   40.8728  -10.6227 H   0  0  0  0  0  0  0  0  0  0  0  0
   14.8039   39.9842  -11.6401 H   0  0  0  0  0  0  0  0  0  0  0  0
   15.7653   38.1194  -10.2128 H   0  0  0  0  0  0  0  0  0  0  0  0
   14.9378   37.9354   -8.6920 H   0  0  0  0  0  0  0  0  0  0  0  0
   18.8506   41.5707   -6.3858 H   0  0  0  0  0  0  0  0  0  0  0  0
   20.9598   39.0200   -7.3748 H   0  0  0  0  0  0  0  0  0  0  0  0
   20.8126   39.0135   -9.1141 H   0  0  0  0  0  0  0  0  0  0  0  0
   20.0435   37.7500   -8.1545 H   0  0  0  0  0  0  0  0  0  0  0  0
   19.2402   39.0284  -10.5971 H   0  0  0  0  0  0  0  0  0  0  0  0
   17.5860   39.2926  -11.0300 H   0  0  0  0  0  0  0  0  0  0  0  0
   18.0901   37.7042  -10.4348 H   0  0  0  0  0  0  0  0  0  0  0  0
   19.0529   46.3235   -9.9905 H   0  0  0  0  0  0  0  0  0  0  0  0
   20.2629   45.4706   -9.0604 H   0  0  0  0  0  0  0  0  0  0  0  0
   19.3023   46.7302   -8.2972 H   0  0  0  0  0  0  0  0  0  0  0  0
   21.4904   45.1071   -6.5879 H   0  0  0  0  0  0  0  0  0  0  0  0
  1  2  1  0  0  0  0
  1 40  1  0  0  0  0
  1 41  1  0  0  0  0
  1 42  1  0  0  0  0
  2  3  1  0  0  0  0
  2 43  1  0  0  0  0
  2 44  1  0  0  0  0
  3  4  1  0  0  0  0
  3 45  1  0  0  0  0
  3 46  1  0  0  0  0
  4  8  1  0  0  0  0
  4  5  2  0  0  0  0
  5  6  1  0  0  0  0
  5 47  1  0  0  0  0
  6  7  2  0  0  0  0
  6  9  1  0  0  0  0
  7  8  1  0  0  0  0
  8 35  1  0  0  0  0
  9 10  1  0  0  0  0
  9 48  1  0  0  0  0
  9 49  1  0  0  0  0
 10 11  1  0  0  0  0
 10 50  1  0  0  0  0
 11 12  1  0  0  0  0
 11 51  1  0  0  0  0
 11 52  1  0  0  0  0
 12 36  1  1  0  0  0
 12 13  1  0  0  0  0
 12 34  1  0  0  0  0
 13 37  1  6  0  0  0
 13 30  1  0  0  0  0
 13 14  1  0  0  0  0
 14 15  1  0  0  0  0
 14 53  1  0  0  0  0
 14 54  1  0  0  0  0
 15 38  1  6  0  0  0
 15 16  1  0  0  0  0
 15 33  1  0  0  0  0
 16 17  1  0  0  0  0
 16 55  1  0  0  0  0
 16 56  1  0  0  0  0
 17 18  1  0  0  0  0
 17 57  1  0  0  0  0
 17 58  1  0  0  0  0
 18 19  1  0  0  0  0
 18 59  1  0  0  0  0
 18 60  1  0  0  0  0
 19 20  1  0  0  0  0
 19 61  1  0  0  0  0
 19 62  1  0  0  0  0
 20 21  1  0  0  0  0
 20 63  1  0  0  0  0
 20 64  1  0  0  0  0
 21 22  1  0  0  0  0
 21 65  1  0  0  0  0
 21 66  1  0  0  0  0
 22 23  1  0  0  0  0
 23 24  1  0  0  0  0
 23 67  1  0  0  0  0
 23 68  1  0  0  0  0
 24 25  2  0  0  0  0
 24 26  1  0  0  0  0
 26 27  1  0  0  0  0
 26 32  1  0  0  0  0
 27 39  1  1  0  0  0
 27 28  1  0  0  0  0
 27 31  1  0  0  0  0
 28 29  2  0  0  0  0
 28 30  1  0  0  0  0
 30 69  1  0  0  0  0
 31 70  1  0  0  0  0
 31 71  1  0  0  0  0
 31 72  1  0  0  0  0
 32 73  1  0  0  0  0
 32 74  1  0  0  0  0
 32 75  1  0  0  0  0
 33 76  1  0  0  0  0
 33 77  1  0  0  0  0
 33 78  1  0  0  0  0
 34 79  1  0  0  0  0
M  END
