BACE_15.smi:1
 OpenBabel09281823033D
Structure written by MMmdl.
 83 86  0  0  1  0  0  0  0  0999 V2000
   20.1146   38.3587   -7.6174 C   0  0  0  0  0  0  0  0  0  0  0  0
   19.2989   37.9976   -8.8702 C   0  0  0  0  0  0  0  0  0  0  0  0
   19.7896   38.8114  -10.0781 C   0  0  0  0  0  0  0  0  0  0  0  0
   17.7875   38.1312   -8.7012 C   0  0  0  0  0  0  0  0  0  0  0  0
   16.9271   37.5246   -9.6399 C   0  0  0  0  0  0  0  0  0  0  0  0
   15.5347   37.7108   -9.5806 C   0  0  0  0  0  0  0  0  0  0  0  0
   14.9819   38.5362   -8.5905 C   0  0  0  0  0  0  0  0  0  0  0  0
   15.8267   39.1249   -7.6367 C   0  0  0  0  0  0  0  0  0  0  0  0
   17.2182   38.8959   -7.6634 C   0  0  0  0  0  0  0  0  0  0  0  0
   15.2550   40.1059   -6.6471 C   0  0  0  0  0  0  0  0  0  0  0  0
   15.2622   41.4618   -7.2400 N   0  3  0  0  0  0  0  0  0  0  0  0
   16.5905   41.9615   -7.6853 C   0  0  0  0  0  0  0  0  0  0  0  0
   16.6216   43.3773   -8.3215 C   0  0  2  0  0  0  0  0  0  0  0  0
   17.5143   44.4205   -7.5906 C   0  0  2  0  0  0  0  0  0  0  0  0
   17.7855   45.6844   -8.4479 C   0  0  0  0  0  0  0  0  0  0  0  0
   18.7288   46.6824   -7.7919 C   0  0  0  0  0  0  0  0  0  0  0  0
   18.2787   47.4645   -6.7089 C   0  0  0  0  0  0  0  0  0  0  0  0
   19.1593   48.3508   -6.0683 C   0  0  0  0  0  0  0  0  0  0  0  0
   20.4906   48.4622   -6.5078 C   0  0  0  0  0  0  0  0  0  0  0  0
   20.9578   47.6977   -7.5965 C   0  0  0  0  0  0  0  0  0  0  0  0
   20.0609   46.8142   -8.2463 C   0  0  0  0  0  0  0  0  0  0  0  0
   22.2835   47.8729   -7.9341 O   0  0  0  0  0  0  0  0  0  0  0  0
   22.8683   47.0868   -8.9647 C   0  0  0  0  0  0  0  0  0  0  0  0
   24.3752   47.0166   -8.6772 C   0  0  0  0  0  0  0  0  0  0  0  0
   24.6915   46.1400   -7.4507 C   0  0  0  0  0  0  0  0  0  0  0  0
   24.9176   44.6583   -7.7984 C   0  0  0  0  0  0  0  0  0  0  0  0
   24.7082   43.8396   -6.6502 O   0  0  0  0  0  0  0  0  0  0  0  0
   23.4247   43.4619   -6.3062 C   0  0  0  0  0  0  0  0  0  0  0  0
   23.2582   42.8666   -5.0388 C   0  0  0  0  0  0  0  0  0  0  0  0
   21.9975   42.3861   -4.6185 C   0  0  0  0  0  0  0  0  0  0  0  0
   20.8824   42.5391   -5.4661 C   0  0  0  0  0  0  0  0  0  0  0  0
   21.0135   43.1745   -6.7201 C   0  0  0  0  0  0  0  0  0  0  0  0
   22.2861   43.6120   -7.1395 C   0  0  0  0  0  0  0  0  0  0  0  0
   19.8236   43.3904   -7.6126 C   0  0  0  0  0  0  0  0  0  0  0  0
   19.8911   43.2311   -8.8307 O   0  0  0  0  0  0  0  0  0  0  0  0
   18.7449   43.8842   -6.9865 N   0  0  0  0  0  0  0  0  0  0  0  0
   21.8534   41.6819   -3.2777 C   0  0  0  0  0  0  0  0  0  0  0  0
   21.4811   42.5444   -2.2109 O   0  0  0  0  0  0  0  0  0  0  0  0
   20.0949   42.8490   -2.1678 C   0  0  0  0  0  0  0  0  0  0  0  0
   15.3107   43.9049   -8.4398 O   0  0  0  0  0  0  0  0  0  0  0  0
   17.0039   43.2695   -9.3381 H   0  0  0  0  0  0  0  0  0  0  0  0
   16.9492   44.7420   -6.7213 H   0  0  0  0  0  0  0  0  0  0  0  0
   19.7926   37.7792   -6.7532 H   0  0  0  0  0  0  0  0  0  0  0  0
   20.0314   39.4160   -7.3651 H   0  0  0  0  0  0  0  0  0  0  0  0
   21.1713   38.1496   -7.7748 H   0  0  0  0  0  0  0  0  0  0  0  0
   19.4886   36.9501   -9.0911 H   0  0  0  0  0  0  0  0  0  0  0  0
   19.2936   38.5030  -10.9975 H   0  0  0  0  0  0  0  0  0  0  0  0
   20.8603   38.6769  -10.2309 H   0  0  0  0  0  0  0  0  0  0  0  0
   19.6050   39.8777   -9.9409 H   0  0  0  0  0  0  0  0  0  0  0  0
   17.3515   36.9408  -10.4392 H   0  0  0  0  0  0  0  0  0  0  0  0
   14.8744   37.2442  -10.3017 H   0  0  0  0  0  0  0  0  0  0  0  0
   13.9150   38.7155   -8.5701 H   0  0  0  0  0  0  0  0  0  0  0  0
   17.8383   39.3833   -6.9259 H   0  0  0  0  0  0  0  0  0  0  0  0
   14.2289   39.8198   -6.4143 H   0  0  0  0  0  0  0  0  0  0  0  0
   15.8059   40.0891   -5.7087 H   0  0  0  0  0  0  0  0  0  0  0  0
   14.6324   41.4679   -8.0307 H   0  0  0  0  0  0  0  0  0  0  0  0
   17.2678   41.8884   -6.8455 H   0  0  0  0  0  0  0  0  0  0  0  0
   16.9933   41.3026   -8.4530 H   0  0  0  0  0  0  0  0  0  0  0  0
   18.2001   45.3945   -9.4136 H   0  0  0  0  0  0  0  0  0  0  0  0
   16.8484   46.1922   -8.6735 H   0  0  0  0  0  0  0  0  0  0  0  0
   17.2598   47.3803   -6.3663 H   0  0  0  0  0  0  0  0  0  0  0  0
   18.8245   48.9481   -5.2367 H   0  0  0  0  0  0  0  0  0  0  0  0
   21.1645   49.1388   -6.0032 H   0  0  0  0  0  0  0  0  0  0  0  0
   20.3734   46.2100   -9.0842 H   0  0  0  0  0  0  0  0  0  0  0  0
   22.4771   46.0737   -9.0180 H   0  0  0  0  0  0  0  0  0  0  0  0
   22.6825   47.5665   -9.9261 H   0  0  0  0  0  0  0  0  0  0  0  0
   24.9104   46.6419   -9.5498 H   0  0  0  0  0  0  0  0  0  0  0  0
   24.7461   48.0283   -8.5080 H   0  0  0  0  0  0  0  0  0  0  0  0
   25.5868   46.5133   -6.9534 H   0  0  0  0  0  0  0  0  0  0  0  0
   23.8926   46.2371   -6.7137 H   0  0  0  0  0  0  0  0  0  0  0  0
   24.3342   44.3335   -8.6608 H   0  0  0  0  0  0  0  0  0  0  0  0
   25.9547   44.5302   -8.1078 H   0  0  0  0  0  0  0  0  0  0  0  0
   24.1184   42.7503   -4.3958 H   0  0  0  0  0  0  0  0  0  0  0  0
   19.9279   42.1506   -5.1513 H   0  0  0  0  0  0  0  0  0  0  0  0
   22.3574   44.0639   -8.1143 H   0  0  0  0  0  0  0  0  0  0  0  0
   18.8300   43.9740   -5.9876 H   0  0  0  0  0  0  0  0  0  0  0  0
   21.1556   40.8487   -3.3614 H   0  0  0  0  0  0  0  0  0  0  0  0
   22.8148   41.2376   -3.0235 H   0  0  0  0  0  0  0  0  0  0  0  0
   19.8934   43.5229   -1.3346 H   0  0  0  0  0  0  0  0  0  0  0  0
   19.4936   41.9500   -2.0340 H   0  0  0  0  0  0  0  0  0  0  0  0
   19.7700   43.3537   -3.0735 H   0  0  0  0  0  0  0  0  0  0  0  0
   15.0019   44.0867   -7.5629 H   0  0  0  0  0  0  0  0  0  0  0  0
   14.8994   42.0858   -6.5208 H   0  0  0  0  0  0  0  0  0  0  0  0
  1  2  1  0  0  0  0
  1 43  1  0  0  0  0
  1 44  1  0  0  0  0
  1 45  1  0  0  0  0
  2  3  1  0  0  0  0
  2  4  1  0  0  0  0
  2 46  1  0  0  0  0
  3 47  1  0  0  0  0
  3 48  1  0  0  0  0
  3 49  1  0  0  0  0
  4  9  1  0  0  0  0
  4  5  2  0  0  0  0
  5  6  1  0  0  0  0
  5 50  1  0  0  0  0
  6  7  2  0  0  0  0
  6 51  1  0  0  0  0
  7  8  1  0  0  0  0
  7 52  1  0  0  0  0
  8  9  2  0  0  0  0
  8 10  1  0  0  0  0
  9 53  1  0  0  0  0
 10 11  1  0  0  0  0
 10 54  1  0  0  0  0
 10 55  1  0  0  0  0
 11 12  1  0  0  0  0
 11 56  1  0  0  0  0
 11 83  1  0  0  0  0
 12 13  1  0  0  0  0
 12 57  1  0  0  0  0
 12 58  1  0  0  0  0
 13 41  1  6  0  0  0
 13 14  1  0  0  0  0
 13 40  1  0  0  0  0
 14 42  1  1  0  0  0
 14 36  1  0  0  0  0
 14 15  1  0  0  0  0
 15 16  1  0  0  0  0
 15 59  1  0  0  0  0
 15 60  1  0  0  0  0
 16 21  1  0  0  0  0
 16 17  2  0  0  0  0
 17 18  1  0  0  0  0
 17 61  1  0  0  0  0
 18 19  2  0  0  0  0
 18 62  1  0  0  0  0
 19 20  1  0  0  0  0
 19 63  1  0  0  0  0
 20 21  2  0  0  0  0
 20 22  1  0  0  0  0
 21 64  1  0  0  0  0
 22 23  1  0  0  0  0
 23 24  1  0  0  0  0
 23 65  1  0  0  0  0
 23 66  1  0  0  0  0
 24 25  1  0  0  0  0
 24 67  1  0  0  0  0
 24 68  1  0  0  0  0
 25 26  1  0  0  0  0
 25 69  1  0  0  0  0
 25 70  1  0  0  0  0
 26 27  1  0  0  0  0
 26 71  1  0  0  0  0
 26 72  1  0  0  0  0
 27 28  1  0  0  0  0
 28 33  1  0  0  0  0
 28 29  2  0  0  0  0
 29 30  1  0  0  0  0
 29 73  1  0  0  0  0
 30 31  2  0  0  0  0
 30 37  1  0  0  0  0
 31 32  1  0  0  0  0
 31 74  1  0  0  0  0
 32 33  2  0  0  0  0
 32 34  1  0  0  0  0
 33 75  1  0  0  0  0
 34 35  2  0  0  0  0
 34 36  1  0  0  0  0
 36 76  1  0  0  0  0
 37 38  1  0  0  0  0
 37 77  1  0  0  0  0
 37 78  1  0  0  0  0
 38 39  1  0  0  0  0
 39 79  1  0  0  0  0
 39 80  1  0  0  0  0
 39 81  1  0  0  0  0
 40 82  1  0  0  0  0
M  CHG  1  11   1
M  END
