BACE_12.smi:1
 OpenBabel09281823033D
Structure written by MMmdl.
 78 81  0  0  1  0  0  0  0  0999 V2000
   21.0646   40.1127   -6.0253 C   0  0  0  0  0  0  0  0  0  0  0  0
   21.5002   39.1974   -7.1870 C   0  0  0  0  0  0  0  0  0  0  0  0
   22.8685   39.6607   -7.7177 C   0  0  0  0  0  0  0  0  0  0  0  0
   20.4210   39.0714   -8.2702 C   0  0  0  0  0  0  0  0  0  0  0  0
   20.6983   39.2694   -9.6463 C   0  0  0  0  0  0  0  0  0  0  0  0
   19.6722   39.1698  -10.6058 C   0  0  0  0  0  0  0  0  0  0  0  0
   18.3542   38.8803  -10.2069 C   0  0  0  0  0  0  0  0  0  0  0  0
   18.0609   38.6764   -8.8452 C   0  0  0  0  0  0  0  0  0  0  0  0
   19.0994   38.7444   -7.8926 C   0  0  0  0  0  0  0  0  0  0  0  0
   16.6379   38.4104   -8.3904 C   0  0  0  0  0  0  0  0  0  0  0  0
   16.2499   39.3165   -7.3087 N   0  0  0  0  0  0  0  0  0  0  0  0
   15.2618   40.3566   -7.6161 C   0  0  0  0  0  0  0  0  0  0  0  0
   15.5474   41.2497   -8.8600 C   0  0  2  0  0  0  0  0  0  0  0  0
   16.9055   42.0276   -8.9387 C   0  0  2  0  0  0  0  0  0  0  0  0
   17.5969   42.2632   -7.5835 C   0  0  0  0  0  0  0  0  0  0  0  0
   18.7123   43.3008   -7.6003 C   0  0  0  0  0  0  0  0  0  0  0  0
   19.9240   43.0207   -8.2640 C   0  0  0  0  0  0  0  0  0  0  0  0
   20.9669   43.9661   -8.2566 C   0  0  0  0  0  0  0  0  0  0  0  0
   20.8042   45.1905   -7.5804 C   0  0  0  0  0  0  0  0  0  0  0  0
   19.5922   45.4820   -6.9185 C   0  0  0  0  0  0  0  0  0  0  0  0
   18.5458   44.5372   -6.9418 C   0  0  0  0  0  0  0  0  0  0  0  0
   19.4244   46.7957   -6.1729 C   0  0  0  0  0  0  0  0  0  0  0  0
   19.4200   48.0235   -7.0978 C   0  0  0  0  0  0  0  0  0  0  0  0
   18.2168   48.0816   -8.0612 C   0  0  0  0  0  0  0  0  0  0  0  0
   18.6467   48.3402   -9.5148 C   0  0  0  0  0  0  0  0  0  0  0  0
   17.5126   48.4733  -10.4167 N   0  0  0  0  0  0  0  0  0  0  0  0
   16.9159   47.3616  -11.0219 C   0  0  0  0  0  0  0  0  0  0  0  0
   17.1760   46.0288  -10.6294 C   0  0  0  0  0  0  0  0  0  0  0  0
   16.5005   44.9821  -11.2952 C   0  0  0  0  0  0  0  0  0  0  0  0
   15.5937   45.3157  -12.3170 C   0  0  0  0  0  0  0  0  0  0  0  0
   15.4051   46.6673  -12.6458 C   0  0  0  0  0  0  0  0  0  0  0  0
   16.0598   47.6700  -12.0169 N   0  0  0  0  0  0  0  0  0  0  0  0
   14.5007   46.9769  -13.6400 O   0  0  0  0  0  0  0  0  0  0  0  0
   14.3910   48.3351  -14.0483 C   0  0  0  0  0  0  0  0  0  0  0  0
   16.7414   43.5468  -10.9384 C   0  0  0  0  0  0  0  0  0  0  0  0
   16.8368   42.6798  -11.8083 O   0  0  0  0  0  0  0  0  0  0  0  0
   16.7655   43.3148   -9.6224 N   0  0  0  0  0  0  0  0  0  0  0  0
   14.4598   42.1516   -8.9318 O   0  0  0  0  0  0  0  0  0  0  0  0
   15.4677   40.6385   -9.7595 H   0  0  0  0  0  0  0  0  0  0  0  0
   17.6019   41.4333   -9.5280 H   0  0  0  0  0  0  0  0  0  0  0  0
   20.1685   39.7500   -5.5236 H   0  0  0  0  0  0  0  0  0  0  0  0
   20.8582   41.1239   -6.3741 H   0  0  0  0  0  0  0  0  0  0  0  0
   21.8438   40.1784   -5.2655 H   0  0  0  0  0  0  0  0  0  0  0  0
   21.6345   38.1935   -6.7795 H   0  0  0  0  0  0  0  0  0  0  0  0
   23.2692   38.9500   -8.4394 H   0  0  0  0  0  0  0  0  0  0  0  0
   23.5992   39.7495   -6.9142 H   0  0  0  0  0  0  0  0  0  0  0  0
   22.8004   40.6362   -8.2007 H   0  0  0  0  0  0  0  0  0  0  0  0
   21.6925   39.5083   -9.9928 H   0  0  0  0  0  0  0  0  0  0  0  0
   19.8919   39.3282  -11.6516 H   0  0  0  0  0  0  0  0  0  0  0  0
   17.5700   38.8289  -10.9471 H   0  0  0  0  0  0  0  0  0  0  0  0
   18.8577   38.5732   -6.8533 H   0  0  0  0  0  0  0  0  0  0  0  0
   15.9426   38.4660   -9.2272 H   0  0  0  0  0  0  0  0  0  0  0  0
   16.5950   37.3792   -8.0387 H   0  0  0  0  0  0  0  0  0  0  0  0
   15.9155   38.7615   -6.5188 H   0  0  0  0  0  0  0  0  0  0  0  0
   14.2911   39.8754   -7.7492 H   0  0  0  0  0  0  0  0  0  0  0  0
   15.1430   40.9895   -6.7346 H   0  0  0  0  0  0  0  0  0  0  0  0
   16.8583   42.5590   -6.8399 H   0  0  0  0  0  0  0  0  0  0  0  0
   18.0253   41.3240   -7.2400 H   0  0  0  0  0  0  0  0  0  0  0  0
   20.0578   42.0771   -8.7723 H   0  0  0  0  0  0  0  0  0  0  0  0
   21.8967   43.7455   -8.7619 H   0  0  0  0  0  0  0  0  0  0  0  0
   21.6162   45.9032   -7.5680 H   0  0  0  0  0  0  0  0  0  0  0  0
   17.6133   44.7519   -6.4416 H   0  0  0  0  0  0  0  0  0  0  0  0
   18.5100   46.7755   -5.5797 H   0  0  0  0  0  0  0  0  0  0  0  0
   20.2483   46.8798   -5.4640 H   0  0  0  0  0  0  0  0  0  0  0  0
   19.4234   48.9273   -6.4879 H   0  0  0  0  0  0  0  0  0  0  0  0
   20.3561   48.0498   -7.6571 H   0  0  0  0  0  0  0  0  0  0  0  0
   17.6413   47.1593   -8.0050 H   0  0  0  0  0  0  0  0  0  0  0  0
   17.5347   48.8678   -7.7340 H   0  0  0  0  0  0  0  0  0  0  0  0
   19.2224   49.2648   -9.5660 H   0  0  0  0  0  0  0  0  0  0  0  0
   19.3135   47.5505   -9.8670 H   0  0  0  0  0  0  0  0  0  0  0  0
   17.3599   49.3692  -10.8549 H   0  0  0  0  0  0  0  0  0  0  0  0
   17.8807   45.7984   -9.8441 H   0  0  0  0  0  0  0  0  0  0  0  0
   15.0446   44.5482  -12.8400 H   0  0  0  0  0  0  0  0  0  0  0  0
   13.6729   48.4101  -14.8652 H   0  0  0  0  0  0  0  0  0  0  0  0
   15.3459   48.7175  -14.4136 H   0  0  0  0  0  0  0  0  0  0  0  0
   14.0392   48.9741  -13.2400 H   0  0  0  0  0  0  0  0  0  0  0  0
   16.6360   44.1118   -9.0181 H   0  0  0  0  0  0  0  0  0  0  0  0
   13.6512   41.6588   -8.8396 H   0  0  0  0  0  0  0  0  0  0  0  0
  1  2  1  0  0  0  0
  1 41  1  0  0  0  0
  1 42  1  0  0  0  0
  1 43  1  0  0  0  0
  2  3  1  0  0  0  0
  2  4  1  0  0  0  0
  2 44  1  0  0  0  0
  3 45  1  0  0  0  0
  3 46  1  0  0  0  0
  3 47  1  0  0  0  0
  4  9  1  0  0  0  0
  4  5  2  0  0  0  0
  5  6  1  0  0  0  0
  5 48  1  0  0  0  0
  6  7  2  0  0  0  0
  6 49  1  0  0  0  0
  7  8  1  0  0  0  0
  7 50  1  0  0  0  0
  8  9  2  0  0  0  0
  8 10  1  0  0  0  0
  9 51  1  0  0  0  0
 10 11  1  0  0  0  0
 10 52  1  0  0  0  0
 10 53  1  0  0  0  0
 11 12  1  0  0  0  0
 11 54  1  0  0  0  0
 12 13  1  0  0  0  0
 12 55  1  0  0  0  0
 12 56  1  0  0  0  0
 13 39  1  6  0  0  0
 13 14  1  0  0  0  0
 13 38  1  0  0  0  0
 14 40  1  6  0  0  0
 14 37  1  0  0  0  0
 14 15  1  0  0  0  0
 15 16  1  0  0  0  0
 15 57  1  0  0  0  0
 15 58  1  0  0  0  0
 16 21  1  0  0  0  0
 16 17  2  0  0  0  0
 17 18  1  0  0  0  0
 17 59  1  0  0  0  0
 18 19  2  0  0  0  0
 18 60  1  0  0  0  0
 19 20  1  0  0  0  0
 19 61  1  0  0  0  0
 20 21  2  0  0  0  0
 20 22  1  0  0  0  0
 21 62  1  0  0  0  0
 22 23  1  0  0  0  0
 22 63  1  0  0  0  0
 22 64  1  0  0  0  0
 23 24  1  0  0  0  0
 23 65  1  0  0  0  0
 23 66  1  0  0  0  0
 24 25  1  0  0  0  0
 24 67  1  0  0  0  0
 24 68  1  0  0  0  0
 25 26  1  0  0  0  0
 25 69  1  0  0  0  0
 25 70  1  0  0  0  0
 26 27  1  0  0  0  0
 26 71  1  0  0  0  0
 27 32  1  0  0  0  0
 27 28  2  0  0  0  0
 28 29  1  0  0  0  0
 28 72  1  0  0  0  0
 29 30  2  0  0  0  0
 29 35  1  0  0  0  0
 30 31  1  0  0  0  0
 30 73  1  0  0  0  0
 31 32  2  0  0  0  0
 31 33  1  0  0  0  0
 33 34  1  0  0  0  0
 34 74  1  0  0  0  0
 34 75  1  0  0  0  0
 34 76  1  0  0  0  0
 35 36  2  0  0  0  0
 35 37  1  0  0  0  0
 37 77  1  0  0  0  0
 38 78  1  0  0  0  0
M  END
