BACE_1.smi:1
 OpenBabel09281823033D
Structure written by MMmdl.
 87 88  0  0  1  0  0  0  0  0999 V2000
   31.1346   43.4995   -8.5662 C   0  0  0  0  0  0  0  0  0  0  0  0
   29.9488   43.4746   -9.5368 C   0  0  0  0  0  0  0  0  0  0  0  0
   30.0612   42.3873  -10.6192 C   0  0  0  0  0  0  0  0  0  0  0  0
   29.0508   42.5381  -11.7727 C   0  0  0  0  0  0  0  0  0  0  0  0
   27.6507   42.3143  -11.4057 N   0  0  0  0  0  0  0  0  0  0  0  0
   26.7836   43.2807  -11.0559 C   0  0  0  0  0  0  0  0  0  0  0  0
   27.1397   44.3954  -10.6731 O   0  0  0  0  0  0  0  0  0  0  0  0
   25.2914   42.9864  -11.2689 C   0  0  2  0  0  0  0  0  0  0  0  0
   24.6230   44.1685  -12.0024 C   0  0  0  0  0  0  0  0  0  0  0  0
   24.5354   42.5967   -9.9681 C   0  0  0  0  0  0  0  0  0  0  0  0
   23.5179   41.4439  -10.1637 C   0  0  1  0  0  0  0  0  0  0  0  0
   22.6397   41.1135   -8.9303 C   0  0  2  0  0  0  0  0  0  0  0  0
   21.7943   39.8296   -9.1801 C   0  0  0  0  0  0  0  0  0  0  0  0
   20.7520   39.4577   -8.0973 C   0  0  1  0  0  0  0  0  0  0  0  0
   19.6796   38.4978   -8.6679 C   0  0  0  0  0  0  0  0  0  0  0  0
   18.4682   38.2149   -7.7513 C   0  0  0  0  0  0  0  0  0  0  0  0
   17.7334   39.4505   -7.2029 C   0  0  0  0  0  0  0  0  0  0  0  0
   17.1417   40.3908   -8.2649 C   0  0  0  0  0  0  0  0  0  0  0  0
   16.4269   41.6123   -7.6445 C   0  0  0  0  0  0  0  0  0  0  0  0
   16.0610   42.6098   -8.6655 N   0  0  0  0  0  0  0  0  0  0  0  0
   16.7515   43.7498   -8.9371 C   0  0  0  0  0  0  0  0  0  0  0  0
   16.3920   44.5588   -9.7949 O   0  0  0  0  0  0  0  0  0  0  0  0
   17.9611   44.0911   -8.1136 C   0  0  0  0  0  0  0  0  0  0  0  0
   19.1439   43.3285   -8.1914 C   0  0  0  0  0  0  0  0  0  0  0  0
   20.2745   43.6626   -7.4071 C   0  0  0  0  0  0  0  0  0  0  0  0
   20.2037   44.7740   -6.5362 C   0  0  0  0  0  0  0  0  0  0  0  0
   19.0336   45.5634   -6.4774 C   0  0  0  0  0  0  0  0  0  0  0  0
   17.9244   45.2197   -7.2738 C   0  0  0  0  0  0  0  0  0  0  0  0
   18.9449   46.6514   -5.6454 O   0  0  0  0  0  0  0  0  0  0  0  0
   19.7016   47.7742   -6.0807 C   0  0  0  0  0  0  0  0  0  0  0  0
   18.9730   48.5215   -7.2049 C   0  0  0  0  0  0  0  0  0  0  0  0
   21.5093   42.8045   -7.4550 C   0  0  0  0  0  0  0  0  0  0  0  0
   22.2119   42.6363   -6.4604 O   0  0  0  0  0  0  0  0  0  0  0  0
   21.7548   42.2428   -8.6496 N   0  0  0  0  0  0  0  0  0  0  0  0
   14.7744   42.3479   -9.3275 C   0  0  0  0  0  0  0  0  0  0  0  0
   13.6592   43.2676   -8.8008 C   0  0  0  0  0  0  0  0  0  0  0  0
   21.4281   38.9003   -6.8349 C   0  0  0  0  0  0  0  0  0  0  0  0
   22.6474   41.7494  -11.2401 O   0  0  0  0  0  0  0  0  0  0  0  0
   25.2599   42.1461  -11.9575 H   0  0  0  0  0  0  0  0  0  0  0  0
   24.0765   40.5495  -10.4396 H   0  0  0  0  0  0  0  0  0  0  0  0
   23.2998   40.9364   -8.0801 H   0  0  0  0  0  0  0  0  0  0  0  0
   20.2256   40.3657   -7.8156 H   0  0  0  0  0  0  0  0  0  0  0  0
   30.9933   44.2662   -7.8046 H   0  0  0  0  0  0  0  0  0  0  0  0
   32.0650   43.7329   -9.0843 H   0  0  0  0  0  0  0  0  0  0  0  0
   31.2600   42.5493   -8.0497 H   0  0  0  0  0  0  0  0  0  0  0  0
   29.0237   43.3464   -8.9746 H   0  0  0  0  0  0  0  0  0  0  0  0
   29.8759   44.4529  -10.0114 H   0  0  0  0  0  0  0  0  0  0  0  0
   31.0602   42.4421  -11.0549 H   0  0  0  0  0  0  0  0  0  0  0  0
   29.9852   41.3893  -10.1869 H   0  0  0  0  0  0  0  0  0  0  0  0
   29.1616   43.5171  -12.2424 H   0  0  0  0  0  0  0  0  0  0  0  0
   29.2921   41.8111  -12.5487 H   0  0  0  0  0  0  0  0  0  0  0  0
   27.2699   41.4123  -11.6494 H   0  0  0  0  0  0  0  0  0  0  0  0
   25.1805   44.4434  -12.8982 H   0  0  0  0  0  0  0  0  0  0  0  0
   24.5648   45.0530  -11.3664 H   0  0  0  0  0  0  0  0  0  0  0  0
   23.6100   43.9232  -12.3177 H   0  0  0  0  0  0  0  0  0  0  0  0
   25.2460   42.2923   -9.1988 H   0  0  0  0  0  0  0  0  0  0  0  0
   24.0336   43.4766   -9.5652 H   0  0  0  0  0  0  0  0  0  0  0  0
   21.2565   39.9572  -10.1210 H   0  0  0  0  0  0  0  0  0  0  0  0
   22.4610   38.9822   -9.3470 H   0  0  0  0  0  0  0  0  0  0  0  0
   19.2991   38.9050   -9.6061 H   0  0  0  0  0  0  0  0  0  0  0  0
   20.1501   37.5507   -8.9361 H   0  0  0  0  0  0  0  0  0  0  0  0
   17.7558   37.5844   -8.2838 H   0  0  0  0  0  0  0  0  0  0  0  0
   18.7933   37.6240   -6.8968 H   0  0  0  0  0  0  0  0  0  0  0  0
   16.9337   39.1154   -6.5401 H   0  0  0  0  0  0  0  0  0  0  0  0
   18.4248   40.0004   -6.5685 H   0  0  0  0  0  0  0  0  0  0  0  0
   17.9294   40.7200   -8.9385 H   0  0  0  0  0  0  0  0  0  0  0  0
   16.4380   39.8342   -8.8829 H   0  0  0  0  0  0  0  0  0  0  0  0
   15.5298   41.2809   -7.1179 H   0  0  0  0  0  0  0  0  0  0  0  0
   17.0368   42.0649   -6.8645 H   0  0  0  0  0  0  0  0  0  0  0  0
   19.1779   42.4784   -8.8534 H   0  0  0  0  0  0  0  0  0  0  0  0
   21.0490   45.0246   -5.9106 H   0  0  0  0  0  0  0  0  0  0  0  0
   17.0333   45.8283   -7.2440 H   0  0  0  0  0  0  0  0  0  0  0  0
   19.8320   48.4533   -5.2392 H   0  0  0  0  0  0  0  0  0  0  0  0
   20.7048   47.4833   -6.4004 H   0  0  0  0  0  0  0  0  0  0  0  0
   19.5246   49.4168   -7.4922 H   0  0  0  0  0  0  0  0  0  0  0  0
   17.9761   48.8273   -6.8848 H   0  0  0  0  0  0  0  0  0  0  0  0
   18.8665   47.9002   -8.0953 H   0  0  0  0  0  0  0  0  0  0  0  0
   21.1745   42.5246   -9.4262 H   0  0  0  0  0  0  0  0  0  0  0  0
   14.8805   42.4706  -10.4063 H   0  0  0  0  0  0  0  0  0  0  0  0
   14.4755   41.3091   -9.1809 H   0  0  0  0  0  0  0  0  0  0  0  0
   12.6987   42.9909   -9.2391 H   0  0  0  0  0  0  0  0  0  0  0  0
   13.8450   44.3137   -9.0434 H   0  0  0  0  0  0  0  0  0  0  0  0
   13.5681   43.1870   -7.7167 H   0  0  0  0  0  0  0  0  0  0  0  0
   21.9187   37.9482   -7.0324 H   0  0  0  0  0  0  0  0  0  0  0  0
   20.6993   38.7435   -6.0411 H   0  0  0  0  0  0  0  0  0  0  0  0
   22.1773   39.5892   -6.4457 H   0  0  0  0  0  0  0  0  0  0  0  0
   23.0873   41.4963  -12.0469 H   0  0  0  0  0  0  0  0  0  0  0  0
  1  2  1  0  0  0  0
  1 43  1  0  0  0  0
  1 44  1  0  0  0  0
  1 45  1  0  0  0  0
  2  3  1  0  0  0  0
  2 46  1  0  0  0  0
  2 47  1  0  0  0  0
  3  4  1  0  0  0  0
  3 48  1  0  0  0  0
  3 49  1  0  0  0  0
  4  5  1  0  0  0  0
  4 50  1  0  0  0  0
  4 51  1  0  0  0  0
  5  6  1  0  0  0  0
  5 52  1  0  0  0  0
  6  7  2  0  0  0  0
  6  8  1  0  0  0  0
  8 39  1  6  0  0  0
  8  9  1  0  0  0  0
  8 10  1  0  0  0  0
  9 53  1  0  0  0  0
  9 54  1  0  0  0  0
  9 55  1  0  0  0  0
 10 11  1  0  0  0  0
 10 56  1  0  0  0  0
 10 57  1  0  0  0  0
 11 40  1  6  0  0  0
 11 12  1  0  0  0  0
 11 38  1  0  0  0  0
 12 41  1  1  0  0  0
 12 34  1  0  0  0  0
 12 13  1  0  0  0  0
 13 14  1  0  0  0  0
 13 58  1  0  0  0  0
 13 59  1  0  0  0  0
 14 42  1  1  0  0  0
 14 15  1  0  0  0  0
 14 37  1  0  0  0  0
 15 16  1  0  0  0  0
 15 60  1  0  0  0  0
 15 61  1  0  0  0  0
 16 17  1  0  0  0  0
 16 62  1  0  0  0  0
 16 63  1  0  0  0  0
 17 18  1  0  0  0  0
 17 64  1  0  0  0  0
 17 65  1  0  0  0  0
 18 19  1  0  0  0  0
 18 66  1  0  0  0  0
 18 67  1  0  0  0  0
 19 20  1  0  0  0  0
 19 68  1  0  0  0  0
 19 69  1  0  0  0  0
 20 21  1  0  0  0  0
 20 35  1  0  0  0  0
 21 22  2  0  0  0  0
 21 23  1  0  0  0  0
 23 28  1  0  0  0  0
 23 24  2  0  0  0  0
 24 25  1  0  0  0  0
 24 70  1  0  0  0  0
 25 26  2  0  0  0  0
 25 32  1  0  0  0  0
 26 27  1  0  0  0  0
 26 71  1  0  0  0  0
 27 28  2  0  0  0  0
 27 29  1  0  0  0  0
 28 72  1  0  0  0  0
 29 30  1  0  0  0  0
 30 31  1  0  0  0  0
 30 73  1  0  0  0  0
 30 74  1  0  0  0  0
 31 75  1  0  0  0  0
 31 76  1  0  0  0  0
 31 77  1  0  0  0  0
 32 33  2  0  0  0  0
 32 34  1  0  0  0  0
 34 78  1  0  0  0  0
 35 36  1  0  0  0  0
 35 79  1  0  0  0  0
 35 80  1  0  0  0  0
 36 81  1  0  0  0  0
 36 82  1  0  0  0  0
 36 83  1  0  0  0  0
 37 84  1  0  0  0  0
 37 85  1  0  0  0  0
 37 86  1  0  0  0  0
 38 87  1  0  0  0  0
M  END
