BACE_3.smi:1
 OpenBabel09281823033D
Structure written by MMmdl.
 85 86  0  0  1  0  0  0  0  0999 V2000
   21.3876   40.6486   -7.6381 C   0  0  0  0  0  0  0  0  0  0  0  0
   22.0595   41.8444   -7.3244 C   0  0  0  0  0  0  0  0  0  0  0  0
   22.0852   42.3144   -5.9966 C   0  0  0  0  0  0  0  0  0  0  0  0
   21.4489   41.5821   -4.9670 C   0  0  0  0  0  0  0  0  0  0  0  0
   21.4527   42.0617   -3.5163 C   0  0  0  0  0  0  0  0  0  0  0  0
   22.7562   42.7704   -3.1170 C   0  0  0  0  0  0  0  0  0  0  0  0
   20.2307   42.9433   -3.2109 C   0  0  0  0  0  0  0  0  0  0  0  0
   20.7833   40.3823   -5.2934 C   0  0  0  0  0  0  0  0  0  0  0  0
   20.7351   39.9188   -6.6252 C   0  0  0  0  0  0  0  0  0  0  0  0
   19.9761   38.6502   -6.9655 C   0  0  0  0  0  0  0  0  0  0  0  0
   18.8514   38.9027   -7.8631 N   0  0  0  0  0  0  0  0  0  0  0  0
   17.5879   38.3235   -7.4015 C   0  0  0  0  0  0  0  0  0  0  0  0
   16.3974   38.5386   -8.3751 C   0  0  0  0  0  0  0  0  0  0  0  0
   15.2654   38.1500   -7.6401 O   0  0  0  0  0  0  0  0  0  0  0  0
   16.5868   37.6808   -9.4819 O   0  0  0  0  0  0  0  0  0  0  0  0
   16.1913   40.0137   -8.8552 C   0  0  1  0  0  0  0  0  0  0  0  0
   17.0360   40.2850  -10.0230 N   0  0  0  0  0  0  0  0  0  0  0  0
   18.0245   41.1866  -10.1061 C   0  0  0  0  0  0  0  0  0  0  0  0
   18.3917   41.8625   -9.1448 O   0  0  0  0  0  0  0  0  0  0  0  0
   18.6741   41.3478  -11.4941 C   0  0  2  0  0  0  0  0  0  0  0  0
   19.8050   40.3053  -11.6534 C   0  0  0  0  0  0  0  0  0  0  0  0
   14.7104   40.3706   -9.2158 C   0  0  0  0  0  0  0  0  0  0  0  0
   14.3618   41.8484   -9.5481 C   0  0  2  0  0  0  0  0  0  0  0  0
   14.8543   42.2981  -10.9298 C   0  0  0  0  0  0  0  0  0  0  0  0
   14.7174   42.7971   -8.3759 C   0  0  0  0  0  0  0  0  0  0  0  0
   14.6448   44.3113   -8.6483 C   0  0  0  0  0  0  0  0  0  0  0  0
   16.0559   44.8943   -8.8300 C   0  0  0  0  0  0  0  0  0  0  0  0
   16.0775   46.3590   -9.2835 C   0  0  0  0  0  0  0  0  0  0  0  0
   17.4940   46.9578   -9.3750 C   0  0  0  0  0  0  0  0  0  0  0  0
   18.4684   46.1675  -10.2677 C   0  0  0  0  0  0  0  0  0  0  0  0
   18.0526   46.1097  -11.7491 C   0  0  0  0  0  0  0  0  0  0  0  0
   18.8598   45.0930  -12.5724 C   0  0  0  0  0  0  0  0  0  0  0  0
   18.3880   43.6419  -12.3567 C   0  0  0  0  0  0  0  0  0  0  0  0
   17.2914   43.3500  -12.8403 O   0  0  0  0  0  0  0  0  0  0  0  0
   19.1627   42.7359  -11.6982 N   0  0  0  0  0  0  0  0  0  0  0  0
   20.4585   43.0966  -11.0956 C   0  0  0  0  0  0  0  0  0  0  0  0
   16.4900   40.6347   -8.0121 H   0  0  0  0  0  0  0  0  0  0  0  0
   17.9263   41.0936  -12.2477 H   0  0  0  0  0  0  0  0  0  0  0  0
   13.2744   41.8703   -9.6401 H   0  0  0  0  0  0  0  0  0  0  0  0
   21.3651   40.2946   -8.6582 H   0  0  0  0  0  0  0  0  0  0  0  0
   22.5520   42.4036   -8.1055 H   0  0  0  0  0  0  0  0  0  0  0  0
   22.5946   43.2414   -5.7827 H   0  0  0  0  0  0  0  0  0  0  0  0
   21.3803   41.1720   -2.8869 H   0  0  0  0  0  0  0  0  0  0  0  0
   23.6279   42.1628   -3.3612 H   0  0  0  0  0  0  0  0  0  0  0  0
   22.7802   42.9624   -2.0452 H   0  0  0  0  0  0  0  0  0  0  0  0
   22.8626   43.7338   -3.6140 H   0  0  0  0  0  0  0  0  0  0  0  0
   19.2981   42.3858   -3.2850 H   0  0  0  0  0  0  0  0  0  0  0  0
   20.1717   43.7828   -3.9018 H   0  0  0  0  0  0  0  0  0  0  0  0
   20.2753   43.3474   -2.1992 H   0  0  0  0  0  0  0  0  0  0  0  0
   20.2746   39.8287   -4.5180 H   0  0  0  0  0  0  0  0  0  0  0  0
   19.6368   38.1818   -6.0417 H   0  0  0  0  0  0  0  0  0  0  0  0
   20.6672   37.9449   -7.4292 H   0  0  0  0  0  0  0  0  0  0  0  0
   18.7361   39.9091   -7.9798 H   0  0  0  0  0  0  0  0  0  0  0  0
   17.3317   38.7663   -6.4352 H   0  0  0  0  0  0  0  0  0  0  0  0
   17.7158   37.2564   -7.2229 H   0  0  0  0  0  0  0  0  0  0  0  0
   15.5206   37.4901   -6.9845 H   0  0  0  0  0  0  0  0  0  0  0  0
   17.0021   36.8955   -9.1603 H   0  0  0  0  0  0  0  0  0  0  0  0
   16.8530   39.7012  -10.8256 H   0  0  0  0  0  0  0  0  0  0  0  0
   19.3938   39.2950  -11.6558 H   0  0  0  0  0  0  0  0  0  0  0  0
   20.5403   40.3388  -10.8505 H   0  0  0  0  0  0  0  0  0  0  0  0
   20.3323   40.4412  -12.5989 H   0  0  0  0  0  0  0  0  0  0  0  0
   14.3715   39.7242  -10.0274 H   0  0  0  0  0  0  0  0  0  0  0  0
   14.0703   40.1156   -8.3725 H   0  0  0  0  0  0  0  0  0  0  0  0
   14.2486   43.1120  -11.3271 H   0  0  0  0  0  0  0  0  0  0  0  0
   14.8068   41.4757  -11.6401 H   0  0  0  0  0  0  0  0  0  0  0  0
   15.8773   42.6496  -10.8844 H   0  0  0  0  0  0  0  0  0  0  0  0
   14.0552   42.5516   -7.5473 H   0  0  0  0  0  0  0  0  0  0  0  0
   15.7112   42.5829   -7.9896 H   0  0  0  0  0  0  0  0  0  0  0  0
   14.1754   44.8064   -7.7978 H   0  0  0  0  0  0  0  0  0  0  0  0
   14.0132   44.5261   -9.5094 H   0  0  0  0  0  0  0  0  0  0  0  0
   16.6035   44.8005   -7.8911 H   0  0  0  0  0  0  0  0  0  0  0  0
   16.5958   44.2873   -9.5537 H   0  0  0  0  0  0  0  0  0  0  0  0
   15.5038   46.9495   -8.5762 H   0  0  0  0  0  0  0  0  0  0  0  0
   15.5685   46.4543  -10.2408 H   0  0  0  0  0  0  0  0  0  0  0  0
   17.4274   47.9844   -9.7342 H   0  0  0  0  0  0  0  0  0  0  0  0
   17.9168   47.0162   -8.3706 H   0  0  0  0  0  0  0  0  0  0  0  0
   18.5906   45.1642   -9.8614 H   0  0  0  0  0  0  0  0  0  0  0  0
   19.4576   46.6231  -10.1987 H   0  0  0  0  0  0  0  0  0  0  0  0
   16.9946   45.8678  -11.8420 H   0  0  0  0  0  0  0  0  0  0  0  0
   18.1645   47.1015  -12.1874 H   0  0  0  0  0  0  0  0  0  0  0  0
   19.9280   45.2382  -12.4314 H   0  0  0  0  0  0  0  0  0  0  0  0
   18.6830   45.3164  -13.6253 H   0  0  0  0  0  0  0  0  0  0  0  0
   20.7197   42.4470  -10.2614 H   0  0  0  0  0  0  0  0  0  0  0  0
   20.4687   44.0986  -10.6731 H   0  0  0  0  0  0  0  0  0  0  0  0
   21.2590   43.0235  -11.8306 H   0  0  0  0  0  0  0  0  0  0  0  0
  1  9  1  0  0  0  0
  1  2  2  0  0  0  0
  1 40  1  0  0  0  0
  2  3  1  0  0  0  0
  2 41  1  0  0  0  0
  3  4  2  0  0  0  0
  3 42  1  0  0  0  0
  4  5  1  0  0  0  0
  4  8  1  0  0  0  0
  5  6  1  0  0  0  0
  5  7  1  0  0  0  0
  5 43  1  0  0  0  0
  6 44  1  0  0  0  0
  6 45  1  0  0  0  0
  6 46  1  0  0  0  0
  7 47  1  0  0  0  0
  7 48  1  0  0  0  0
  7 49  1  0  0  0  0
  8  9  2  0  0  0  0
  8 50  1  0  0  0  0
  9 10  1  0  0  0  0
 10 11  1  0  0  0  0
 10 51  1  0  0  0  0
 10 52  1  0  0  0  0
 11 12  1  0  0  0  0
 11 53  1  0  0  0  0
 12 13  1  0  0  0  0
 12 54  1  0  0  0  0
 12 55  1  0  0  0  0
 13 14  1  0  0  0  0
 13 15  1  0  0  0  0
 13 16  1  0  0  0  0
 14 56  1  0  0  0  0
 15 57  1  0  0  0  0
 16 37  1  1  0  0  0
 16 17  1  0  0  0  0
 16 22  1  0  0  0  0
 17 18  1  0  0  0  0
 17 58  1  0  0  0  0
 18 19  2  0  0  0  0
 18 20  1  0  0  0  0
 20 38  1  6  0  0  0
 20 35  1  0  0  0  0
 20 21  1  0  0  0  0
 21 59  1  0  0  0  0
 21 60  1  0  0  0  0
 21 61  1  0  0  0  0
 22 23  1  0  0  0  0
 22 62  1  0  0  0  0
 22 63  1  0  0  0  0
 23 39  1  6  0  0  0
 23 24  1  0  0  0  0
 23 25  1  0  0  0  0
 24 64  1  0  0  0  0
 24 65  1  0  0  0  0
 24 66  1  0  0  0  0
 25 26  1  0  0  0  0
 25 67  1  0  0  0  0
 25 68  1  0  0  0  0
 26 27  1  0  0  0  0
 26 69  1  0  0  0  0
 26 70  1  0  0  0  0
 27 28  1  0  0  0  0
 27 71  1  0  0  0  0
 27 72  1  0  0  0  0
 28 29  1  0  0  0  0
 28 73  1  0  0  0  0
 28 74  1  0  0  0  0
 29 30  1  0  0  0  0
 29 75  1  0  0  0  0
 29 76  1  0  0  0  0
 30 31  1  0  0  0  0
 30 77  1  0  0  0  0
 30 78  1  0  0  0  0
 31 32  1  0  0  0  0
 31 79  1  0  0  0  0
 31 80  1  0  0  0  0
 32 33  1  0  0  0  0
 32 81  1  0  0  0  0
 32 82  1  0  0  0  0
 33 34  2  0  0  0  0
 33 35  1  0  0  0  0
 35 36  1  0  0  0  0
 36 83  1  0  0  0  0
 36 84  1  0  0  0  0
 36 85  1  0  0  0  0
M  END
