BACE_16.smi:1
 OpenBabel09281823033D
Structure written by MMmdl.
 85 88  0  0  1  0  0  0  0  0999 V2000
   31.8681   42.1552  -13.9147 C   0  0  0  0  0  0  0  0  0  0  0  0
   30.4157   41.9809  -14.3817 C   0  0  0  0  0  0  0  0  0  0  0  0
   30.2862   42.1499  -15.9023 C   0  0  0  0  0  0  0  0  0  0  0  0
   29.4725   42.9181  -13.6393 C   0  0  0  0  0  0  0  0  0  0  0  0
   29.5681   44.3156  -13.8176 C   0  0  0  0  0  0  0  0  0  0  0  0
   28.6812   45.1794  -13.1496 C   0  0  0  0  0  0  0  0  0  0  0  0
   27.6930   44.6516  -12.2985 C   0  0  0  0  0  0  0  0  0  0  0  0
   27.5861   43.2570  -12.1161 C   0  0  0  0  0  0  0  0  0  0  0  0
   28.4832   42.3956  -12.7803 C   0  0  0  0  0  0  0  0  0  0  0  0
   26.5416   42.6988  -11.1708 C   0  0  0  0  0  0  0  0  0  0  0  0
   25.1640   42.9613  -11.6433 N   0  3  0  0  0  0  0  0  0  0  0  0
   24.1867   42.9605  -10.5317 C   0  0  0  0  0  0  0  0  0  0  0  0
   22.7180   43.2087  -10.9534 C   0  0  2  0  0  0  0  0  0  0  0  0
   21.7308   43.4632   -9.7580 C   0  0  2  0  0  0  0  0  0  0  0  0
   22.1358   42.8444   -8.3804 C   0  0  0  0  0  0  0  0  0  0  0  0
   21.6775   41.4077   -8.1361 C   0  0  0  0  0  0  0  0  0  0  0  0
   22.5113   40.3104   -8.4433 C   0  0  0  0  0  0  0  0  0  0  0  0
   22.0596   38.9965   -8.2288 C   0  0  0  0  0  0  0  0  0  0  0  0
   20.7807   38.7679   -7.6948 C   0  0  0  0  0  0  0  0  0  0  0  0
   19.9365   39.8528   -7.3668 C   0  0  0  0  0  0  0  0  0  0  0  0
   20.4000   41.1648   -7.5836 C   0  0  0  0  0  0  0  0  0  0  0  0
   18.6714   39.7286   -6.8424 O   0  0  0  0  0  0  0  0  0  0  0  0
   18.0889   38.4412   -6.6840 C   0  0  0  0  0  0  0  0  0  0  0  0
   17.5802   37.9147   -8.0337 C   0  0  0  0  0  0  0  0  0  0  0  0
   16.3016   38.6326   -8.4930 C   0  0  0  0  0  0  0  0  0  0  0  0
   16.1072   38.5396  -10.0111 C   0  0  0  0  0  0  0  0  0  0  0  0
   17.0744   39.3493  -10.6812 O   0  0  0  0  0  0  0  0  0  0  0  0
   16.9282   40.7180  -10.6652 C   0  0  0  0  0  0  0  0  0  0  0  0
   18.1063   41.4765  -10.7636 C   0  0  0  0  0  0  0  0  0  0  0  0
   18.0757   42.8874  -10.6838 C   0  0  0  0  0  0  0  0  0  0  0  0
   16.8231   43.5385  -10.5861 C   0  0  0  0  0  0  0  0  0  0  0  0
   15.6207   42.7986  -10.5204 C   0  0  0  0  0  0  0  0  0  0  0  0
   15.6864   41.3826  -10.5558 C   0  0  0  0  0  0  0  0  0  0  0  0
   14.4311   43.4937  -10.4079 O   0  0  0  0  0  0  0  0  0  0  0  0
   13.2250   42.7319  -10.4021 C   0  0  0  0  0  0  0  0  0  0  0  0
   12.0399   43.6345  -10.0735 C   0  0  0  0  0  0  0  0  0  0  0  0
   11.0831   43.7499  -10.8400 O   0  0  0  0  0  0  0  0  0  0  0  0
   12.0804   44.3895   -8.7523 C   0  0  0  0  0  0  0  0  0  0  0  0
   19.3614   43.6694  -10.6668 C   0  0  0  0  0  0  0  0  0  0  0  0
   19.4351   44.8171  -11.1019 O   0  0  0  0  0  0  0  0  0  0  0  0
   20.3694   43.0232  -10.0664 N   0  0  0  0  0  0  0  0  0  0  0  0
   22.2473   42.1405  -11.7507 O   0  0  0  0  0  0  0  0  0  0  0  0
   22.6868   44.0918  -11.5949 H   0  0  0  0  0  0  0  0  0  0  0  0
   21.7165   44.5440   -9.6070 H   0  0  0  0  0  0  0  0  0  0  0  0
   31.9659   41.9610  -12.8458 H   0  0  0  0  0  0  0  0  0  0  0  0
   32.2361   43.1647  -14.1055 H   0  0  0  0  0  0  0  0  0  0  0  0
   32.5252   41.4608  -14.4396 H   0  0  0  0  0  0  0  0  0  0  0  0
   30.1274   40.9537  -14.1451 H   0  0  0  0  0  0  0  0  0  0  0  0
   29.2607   41.9752  -16.2285 H   0  0  0  0  0  0  0  0  0  0  0  0
   30.9178   41.4308  -16.4282 H   0  0  0  0  0  0  0  0  0  0  0  0
   30.5812   43.1475  -16.2314 H   0  0  0  0  0  0  0  0  0  0  0  0
   30.3233   44.7298  -14.4683 H   0  0  0  0  0  0  0  0  0  0  0  0
   28.7673   46.2477  -13.2825 H   0  0  0  0  0  0  0  0  0  0  0  0
   27.0316   45.3270  -11.7774 H   0  0  0  0  0  0  0  0  0  0  0  0
   28.4183   41.3264  -12.6309 H   0  0  0  0  0  0  0  0  0  0  0  0
   26.6799   41.6246  -11.0253 H   0  0  0  0  0  0  0  0  0  0  0  0
   26.7072   43.1658  -10.1975 H   0  0  0  0  0  0  0  0  0  0  0  0
   25.1475   43.8709  -12.0852 H   0  0  0  0  0  0  0  0  0  0  0  0
   24.2840   42.0086  -10.0144 H   0  0  0  0  0  0  0  0  0  0  0  0
   24.4860   43.7431   -9.8293 H   0  0  0  0  0  0  0  0  0  0  0  0
   23.1989   42.9339   -8.1617 H   0  0  0  0  0  0  0  0  0  0  0  0
   21.6647   43.4466   -7.6040 H   0  0  0  0  0  0  0  0  0  0  0  0
   23.5034   40.4515   -8.8369 H   0  0  0  0  0  0  0  0  0  0  0  0
   22.6937   38.1557   -8.4688 H   0  0  0  0  0  0  0  0  0  0  0  0
   20.4651   37.7502   -7.5492 H   0  0  0  0  0  0  0  0  0  0  0  0
   19.7530   41.9916   -7.3305 H   0  0  0  0  0  0  0  0  0  0  0  0
   18.7767   37.7497   -6.1983 H   0  0  0  0  0  0  0  0  0  0  0  0
   17.2483   38.5486   -5.9980 H   0  0  0  0  0  0  0  0  0  0  0  0
   18.3610   38.0130   -8.7864 H   0  0  0  0  0  0  0  0  0  0  0  0
   17.3747   36.8469   -7.9599 H   0  0  0  0  0  0  0  0  0  0  0  0
   15.4472   38.1880   -7.9796 H   0  0  0  0  0  0  0  0  0  0  0  0
   16.3199   39.6784   -8.1865 H   0  0  0  0  0  0  0  0  0  0  0  0
   16.2633   37.5080  -10.3231 H   0  0  0  0  0  0  0  0  0  0  0  0
   15.0831   38.7667  -10.3034 H   0  0  0  0  0  0  0  0  0  0  0  0
   19.0424   40.9452  -10.8546 H   0  0  0  0  0  0  0  0  0  0  0  0
   16.7818   44.6180  -10.5316 H   0  0  0  0  0  0  0  0  0  0  0  0
   14.7841   40.8013  -10.5008 H   0  0  0  0  0  0  0  0  0  0  0  0
   13.0717   42.2583  -11.3733 H   0  0  0  0  0  0  0  0  0  0  0  0
   13.2625   41.9519   -9.6399 H   0  0  0  0  0  0  0  0  0  0  0  0
   13.1088   44.5760   -8.4451 H   0  0  0  0  0  0  0  0  0  0  0  0
   11.5950   43.7989   -7.9757 H   0  0  0  0  0  0  0  0  0  0  0  0
   11.5549   45.3400   -8.8410 H   0  0  0  0  0  0  0  0  0  0  0  0
   20.1574   42.0859   -9.7510 H   0  0  0  0  0  0  0  0  0  0  0  0
   22.9548   41.7100  -12.2177 H   0  0  0  0  0  0  0  0  0  0  0  0
   24.9181   42.2575  -12.3314 H   0  0  0  0  0  0  0  0  0  0  0  0
  1  2  1  0  0  0  0
  1 45  1  0  0  0  0
  1 46  1  0  0  0  0
  1 47  1  0  0  0  0
  2  3  1  0  0  0  0
  2  4  1  0  0  0  0
  2 48  1  0  0  0  0
  3 49  1  0  0  0  0
  3 50  1  0  0  0  0
  3 51  1  0  0  0  0
  4  9  1  0  0  0  0
  4  5  2  0  0  0  0
  5  6  1  0  0  0  0
  5 52  1  0  0  0  0
  6  7  2  0  0  0  0
  6 53  1  0  0  0  0
  7  8  1  0  0  0  0
  7 54  1  0  0  0  0
  8  9  2  0  0  0  0
  8 10  1  0  0  0  0
  9 55  1  0  0  0  0
 10 11  1  0  0  0  0
 10 56  1  0  0  0  0
 10 57  1  0  0  0  0
 11 12  1  0  0  0  0
 11 58  1  0  0  0  0
 11 85  1  0  0  0  0
 12 13  1  0  0  0  0
 12 59  1  0  0  0  0
 12 60  1  0  0  0  0
 13 43  1  6  0  0  0
 13 14  1  0  0  0  0
 13 42  1  0  0  0  0
 14 44  1  1  0  0  0
 14 41  1  0  0  0  0
 14 15  1  0  0  0  0
 15 16  1  0  0  0  0
 15 61  1  0  0  0  0
 15 62  1  0  0  0  0
 16 21  1  0  0  0  0
 16 17  2  0  0  0  0
 17 18  1  0  0  0  0
 17 63  1  0  0  0  0
 18 19  2  0  0  0  0
 18 64  1  0  0  0  0
 19 20  1  0  0  0  0
 19 65  1  0  0  0  0
 20 21  2  0  0  0  0
 20 22  1  0  0  0  0
 21 66  1  0  0  0  0
 22 23  1  0  0  0  0
 23 24  1  0  0  0  0
 23 67  1  0  0  0  0
 23 68  1  0  0  0  0
 24 25  1  0  0  0  0
 24 69  1  0  0  0  0
 24 70  1  0  0  0  0
 25 26  1  0  0  0  0
 25 71  1  0  0  0  0
 25 72  1  0  0  0  0
 26 27  1  0  0  0  0
 26 73  1  0  0  0  0
 26 74  1  0  0  0  0
 27 28  1  0  0  0  0
 28 33  1  0  0  0  0
 28 29  2  0  0  0  0
 29 30  1  0  0  0  0
 29 75  1  0  0  0  0
 30 31  2  0  0  0  0
 30 39  1  0  0  0  0
 31 32  1  0  0  0  0
 31 76  1  0  0  0  0
 32 33  2  0  0  0  0
 32 34  1  0  0  0  0
 33 77  1  0  0  0  0
 34 35  1  0  0  0  0
 35 36  1  0  0  0  0
 35 78  1  0  0  0  0
 35 79  1  0  0  0  0
 36 37  2  0  0  0  0
 36 38  1  0  0  0  0
 38 80  1  0  0  0  0
 38 81  1  0  0  0  0
 38 82  1  0  0  0  0
 39 40  2  0  0  0  0
 39 41  1  0  0  0  0
 41 83  1  0  0  0  0
 42 84  1  0  0  0  0
M  CHG  1  11   1
M  END
