REMARK energy -3.17277
 OpenBabel10031817233D
Structure written by MMmdl.
 86 88  0  0  1  0  0  0  0  0999 V2000
   21.0389   38.5598   -7.2983 C   0  0  0  0  0  0  0  0  0  0  0  0
   20.3683   39.4110   -8.3911 C   0  0  2  0  0  0  0  0  0  0  0  0
   19.6497   38.5111   -9.4256 C   0  0  0  0  0  0  0  0  0  0  0  0
   18.3400   37.8999   -8.9113 C   0  0  0  0  0  0  0  0  0  0  0  0
   17.5082   38.9713   -8.5089 O   0  0  0  0  0  0  0  0  0  0  0  0
   16.1924   38.5846   -8.1538 C   0  0  0  0  0  0  0  0  0  0  0  0
   15.5978   39.6384   -7.2136 C   0  0  0  0  0  0  0  0  0  0  0  0
   15.7817   41.0793   -7.7105 C   0  0  0  0  0  0  0  0  0  0  0  0
   15.1359   41.3373   -9.0764 C   0  0  0  0  0  0  0  0  0  0  0  0
   15.3648   42.7003   -9.5282 N   0  0  0  0  0  0  0  0  0  0  0  0
   16.4366   43.0469  -10.3611 C   0  0  0  0  0  0  0  0  0  0  0  0
   16.3987   44.3307  -10.9351 C   0  0  0  0  0  0  0  0  0  0  0  0
   17.3984   44.7514  -11.8308 C   0  0  0  0  0  0  0  0  0  0  0  0
   18.4489   43.8692  -12.1538 C   0  0  0  0  0  0  0  0  0  0  0  0
   18.5191   42.5860  -11.5761 C   0  0  0  0  0  0  0  0  0  0  0  0
   17.5115   42.1754  -10.6716 C   0  0  0  0  0  0  0  0  0  0  0  0
   19.5950   41.6449  -12.0387 C   0  0  0  0  0  0  0  0  0  0  0  0
   19.6610   41.3502  -13.2273 O   0  0  0  0  0  0  0  0  0  0  0  0
   20.4933   41.1577  -11.1672 N   0  0  0  0  0  0  0  0  0  0  0  0
   20.7975   41.5827   -9.8001 C   0  0  1  0  0  0  0  0  0  0  0  0
   21.4002   40.3781   -9.0208 C   0  0  0  0  0  0  0  0  0  0  0  0
   21.7641   42.8102   -9.7880 C   0  0  1  0  0  0  0  0  0  0  0  0
   22.8649   42.8668  -10.8800 C   0  0  0  0  0  0  0  0  0  0  0  0
   23.8189   41.7395  -10.7989 N   0  3  0  0  0  0  0  0  0  0  0  0
   24.8425   41.7830   -9.7313 C   0  0  0  0  0  0  0  0  0  0  0  0
   25.9664   42.7504  -10.0559 C   0  0  0  0  0  0  0  0  0  0  0  0
   25.8860   44.0957   -9.6390 C   0  0  0  0  0  0  0  0  0  0  0  0
   26.9249   44.9936   -9.9474 C   0  0  0  0  0  0  0  0  0  0  0  0
   28.0555   44.5463  -10.6547 C   0  0  0  0  0  0  0  0  0  0  0  0
   28.1630   43.1997  -11.0585 C   0  0  0  0  0  0  0  0  0  0  0  0
   27.1111   42.3019  -10.7536 C   0  0  0  0  0  0  0  0  0  0  0  0
   29.4244   42.7383  -11.7819 C   0  0  0  0  0  0  0  0  0  0  0  0
   29.1531   41.7361  -12.9144 C   0  0  0  0  0  0  0  0  0  0  0  0
   30.4594   42.1976  -10.7857 C   0  0  0  0  0  0  0  0  0  0  0  0
   21.0032   43.9982   -9.8798 O   0  0  0  0  0  0  0  0  0  0  0  0
   17.2895   46.1184  -12.4810 C   0  0  0  0  0  0  0  0  0  0  0  0
   18.4791   46.5531  -13.1229 O   0  0  0  0  0  0  0  0  0  0  0  0
   19.4565   47.0529  -12.2192 C   0  0  0  0  0  0  0  0  0  0  0  0
   19.6261   40.0317   -7.8877 H   0  0  0  0  0  0  0  0  0  0  0  0
   19.8785   41.8656   -9.2816 H   0  0  0  0  0  0  0  0  0  0  0  0
   22.2388   42.8808   -8.8064 H   0  0  0  0  0  0  0  0  0  0  0  0
   21.8300   37.9353   -7.7150 H   0  0  0  0  0  0  0  0  0  0  0  0
   20.3185   37.9098   -6.8039 H   0  0  0  0  0  0  0  0  0  0  0  0
   21.4837   39.1836   -6.5218 H   0  0  0  0  0  0  0  0  0  0  0  0
   19.3859   39.0787  -10.3133 H   0  0  0  0  0  0  0  0  0  0  0  0
   20.3214   37.7239   -9.7672 H   0  0  0  0  0  0  0  0  0  0  0  0
   17.8590   37.3252   -9.7042 H   0  0  0  0  0  0  0  0  0  0  0  0
   18.5124   37.2235   -8.0733 H   0  0  0  0  0  0  0  0  0  0  0  0
   15.5916   38.4623   -9.0560 H   0  0  0  0  0  0  0  0  0  0  0  0
   16.1977   37.6320   -7.6416 H   0  0  0  0  0  0  0  0  0  0  0  0
   14.5403   39.4292   -7.0476 H   0  0  0  0  0  0  0  0  0  0  0  0
   16.0718   39.5475   -6.2354 H   0  0  0  0  0  0  0  0  0  0  0  0
   15.3477   41.7500   -6.9705 H   0  0  0  0  0  0  0  0  0  0  0  0
   16.8446   41.3216   -7.7455 H   0  0  0  0  0  0  0  0  0  0  0  0
   15.4836   40.6319   -9.8287 H   0  0  0  0  0  0  0  0  0  0  0  0
   14.0602   41.1810   -8.9997 H   0  0  0  0  0  0  0  0  0  0  0  0
   14.6429   43.3768   -9.3292 H   0  0  0  0  0  0  0  0  0  0  0  0
   15.5824   44.9987  -10.7055 H   0  0  0  0  0  0  0  0  0  0  0  0
   19.2165   44.1785  -12.8444 H   0  0  0  0  0  0  0  0  0  0  0  0
   17.5548   41.1781  -10.2494 H   0  0  0  0  0  0  0  0  0  0  0  0
   21.0995   40.4486  -11.5533 H   0  0  0  0  0  0  0  0  0  0  0  0
   22.0029   40.7713   -8.2025 H   0  0  0  0  0  0  0  0  0  0  0  0
   22.0980   39.8143   -9.6430 H   0  0  0  0  0  0  0  0  0  0  0  0
   22.4109   42.8579  -11.8695 H   0  0  0  0  0  0  0  0  0  0  0  0
   23.4092   43.8106  -10.8247 H   0  0  0  0  0  0  0  0  0  0  0  0
   23.2870   40.8892  -10.6805 H   0  0  0  0  0  0  0  0  0  0  0  0
   24.3971   42.0283   -8.7670 H   0  0  0  0  0  0  0  0  0  0  0  0
   25.2621   40.7819   -9.6235 H   0  0  0  0  0  0  0  0  0  0  0  0
   25.0282   44.4460   -9.0824 H   0  0  0  0  0  0  0  0  0  0  0  0
   26.8592   46.0253   -9.6327 H   0  0  0  0  0  0  0  0  0  0  0  0
   28.8506   45.2423  -10.8760 H   0  0  0  0  0  0  0  0  0  0  0  0
   27.1806   41.2626  -11.0414 H   0  0  0  0  0  0  0  0  0  0  0  0
   29.8629   43.6218  -12.2471 H   0  0  0  0  0  0  0  0  0  0  0  0
   28.4574   42.1519  -13.6415 H   0  0  0  0  0  0  0  0  0  0  0  0
   28.7444   40.7942  -12.5439 H   0  0  0  0  0  0  0  0  0  0  0  0
   30.0734   41.4940  -13.4485 H   0  0  0  0  0  0  0  0  0  0  0  0
   30.7432   42.9559  -10.0541 H   0  0  0  0  0  0  0  0  0  0  0  0
   31.3639   41.8705  -11.3005 H   0  0  0  0  0  0  0  0  0  0  0  0
   30.0585   41.3501  -10.2426 H   0  0  0  0  0  0  0  0  0  0  0  0
   20.3566   43.9990   -9.1902 H   0  0  0  0  0  0  0  0  0  0  0  0
   16.5061   46.0618  -13.2370 H   0  0  0  0  0  0  0  0  0  0  0  0
   16.9606   46.8585  -11.7444 H   0  0  0  0  0  0  0  0  0  0  0  0
   20.3535   47.3350  -12.7719 H   0  0  0  0  0  0  0  0  0  0  0  0
   19.7423   46.3079  -11.4754 H   0  0  0  0  0  0  0  0  0  0  0  0
   19.0919   47.9396  -11.6988 H   0  0  0  0  0  0  0  0  0  0  0  0
   24.2852   41.6504  -11.6988 H   0  0  0  0  0  0  0  0  0  0  0  0
  1  2  1  0  0  0  0
  1 42  1  0  0  0  0
  1 43  1  0  0  0  0
  1 44  1  0  0  0  0
  2 39  1  1  0  0  0
  2 21  1  0  0  0  0
  2  3  1  0  0  0  0
  3  4  1  0  0  0  0
  3 45  1  0  0  0  0
  3 46  1  0  0  0  0
  4  5  1  0  0  0  0
  4 47  1  0  0  0  0
  4 48  1  0  0  0  0
  5  6  1  0  0  0  0
  6  7  1  0  0  0  0
  6 49  1  0  0  0  0
  6 50  1  0  0  0  0
  7  8  1  0  0  0  0
  7 51  1  0  0  0  0
  7 52  1  0  0  0  0
  8  9  1  0  0  0  0
  8 53  1  0  0  0  0
  8 54  1  0  0  0  0
  9 10  1  0  0  0  0
  9 55  1  0  0  0  0
  9 56  1  0  0  0  0
 10 11  1  0  0  0  0
 10 57  1  0  0  0  0
 11 16  1  0  0  0  0
 11 12  2  0  0  0  0
 12 13  1  0  0  0  0
 12 58  1  0  0  0  0
 13 14  2  0  0  0  0
 13 36  1  0  0  0  0
 14 15  1  0  0  0  0
 14 59  1  0  0  0  0
 15 16  2  0  0  0  0
 15 17  1  0  0  0  0
 16 60  1  0  0  0  0
 17 18  2  0  0  0  0
 17 19  1  0  0  0  0
 19 20  1  0  0  0  0
 19 61  1  0  0  0  0
 20 40  1  1  0  0  0
 20 21  1  0  0  0  0
 20 22  1  0  0  0  0
 21 62  1  0  0  0  0
 21 63  1  0  0  0  0
 22 41  1  1  0  0  0
 22 23  1  0  0  0  0
 22 35  1  0  0  0  0
 23 24  1  0  0  0  0
 23 64  1  0  0  0  0
 23 65  1  0  0  0  0
 24 25  1  0  0  0  0
 24 66  1  0  0  0  0
 24 86  1  0  0  0  0
 25 26  1  0  0  0  0
 25 67  1  0  0  0  0
 25 68  1  0  0  0  0
 26 31  1  0  0  0  0
 26 27  2  0  0  0  0
 27 28  1  0  0  0  0
 27 69  1  0  0  0  0
 28 29  2  0  0  0  0
 28 70  1  0  0  0  0
 29 30  1  0  0  0  0
 29 71  1  0  0  0  0
 30 31  2  0  0  0  0
 30 32  1  0  0  0  0
 31 72  1  0  0  0  0
 32 33  1  0  0  0  0
 32 34  1  0  0  0  0
 32 73  1  0  0  0  0
 33 74  1  0  0  0  0
 33 75  1  0  0  0  0
 33 76  1  0  0  0  0
 34 77  1  0  0  0  0
 34 78  1  0  0  0  0
 34 79  1  0  0  0  0
 35 80  1  0  0  0  0
 36 37  1  0  0  0  0
 36 81  1  0  0  0  0
 36 82  1  0  0  0  0
 37 38  1  0  0  0  0
 38 83  1  0  0  0  0
 38 84  1  0  0  0  0
 38 85  1  0  0  0  0
M  CHG  1  24   1
M  END
