REMARK energy -0.208267
 OpenBabel10031817233D
Structure written by MMmdl.
 77 79  0  0  1  0  0  0  0  0999 V2000
   20.4589   38.8267   -7.2868 C   0  0  0  0  0  0  0  0  0  0  0  0
   19.8519   39.1371   -8.6700 C   0  0  2  0  0  0  0  0  0  0  0  0
   19.0635   37.9256   -9.2230 C   0  0  0  0  0  0  0  0  0  0  0  0
   17.7862   37.5838   -8.4371 C   0  0  0  0  0  0  0  0  0  0  0  0
   16.8767   38.6666   -8.5476 O   0  0  0  0  0  0  0  0  0  0  0  0
   15.7826   38.5503   -7.6518 C   0  0  0  0  0  0  0  0  0  0  0  0
   14.7879   39.6935   -7.8681 C   0  0  0  0  0  0  0  0  0  0  0  0
   15.2606   41.0547   -7.3327 C   0  0  0  0  0  0  0  0  0  0  0  0
   16.5420   41.5658   -8.0025 C   0  0  0  0  0  0  0  0  0  0  0  0
   16.8292   42.9429   -7.6401 N   0  0  0  0  0  0  0  0  0  0  0  0
   18.0966   43.4614   -7.9091 C   0  0  0  0  0  0  0  0  0  0  0  0
   18.9128   42.9590   -8.9466 C   0  0  0  0  0  0  0  0  0  0  0  0
   20.1550   43.5763   -9.1906 C   0  0  0  0  0  0  0  0  0  0  0  0
   20.5374   44.6609   -8.3754 C   0  0  0  0  0  0  0  0  0  0  0  0
   19.6682   45.0729   -7.3460 C   0  0  0  0  0  0  0  0  0  0  0  0
   18.4697   44.4950   -7.1270 N   0  0  0  0  0  0  0  0  0  0  0  0
   20.1310   46.3845   -6.3257 Cl  0  0  0  0  0  0  0  0  0  0  0  0
   21.0063   43.1611  -10.3540 C   0  0  0  0  0  0  0  0  0  0  0  0
   21.2539   43.9741  -11.2399 O   0  0  0  0  0  0  0  0  0  0  0  0
   21.4714   41.9018  -10.4152 N   0  0  0  0  0  0  0  0  0  0  0  0
   21.6364   40.9358   -9.3227 C   0  0  1  0  0  0  0  0  0  0  0  0
   20.9132   39.6107   -9.6932 C   0  0  0  0  0  0  0  0  0  0  0  0
   23.1615   40.7434   -9.0774 C   0  0  1  0  0  0  0  0  0  0  0  0
   23.8829   42.0425   -8.6201 C   0  0  0  0  0  0  0  0  0  0  0  0
   25.0496   42.4025   -9.4345 N   0  0  0  0  0  0  0  0  0  0  0  0
   24.7934   42.6697  -10.8452 C   0  0  0  0  0  0  0  0  0  0  0  0
   25.9893   43.2947  -11.5328 C   0  0  0  0  0  0  0  0  0  0  0  0
   25.8918   44.6049  -12.0461 C   0  0  0  0  0  0  0  0  0  0  0  0
   26.9984   45.1977  -12.6783 C   0  0  0  0  0  0  0  0  0  0  0  0
   28.2055   44.4846  -12.8006 C   0  0  0  0  0  0  0  0  0  0  0  0
   28.3182   43.1720  -12.2912 C   0  0  0  0  0  0  0  0  0  0  0  0
   27.1996   42.5775  -11.6612 C   0  0  0  0  0  0  0  0  0  0  0  0
   29.6367   42.4232  -12.4446 C   0  0  0  0  0  0  0  0  0  0  0  0
   29.5659   41.4047  -13.5869 C   0  0  0  0  0  0  0  0  0  0  0  0
   30.1098   41.7680  -11.1374 C   0  0  0  0  0  0  0  0  0  0  0  0
   23.3702   39.7698   -8.0756 O   0  0  0  0  0  0  0  0  0  0  0  0
   19.1484   39.9586   -8.5445 H   0  0  0  0  0  0  0  0  0  0  0  0
   21.2032   41.3370   -8.4061 H   0  0  0  0  0  0  0  0  0  0  0  0
   23.6140   40.3428   -9.9839 H   0  0  0  0  0  0  0  0  0  0  0  0
   21.1877   38.0184   -7.3465 H   0  0  0  0  0  0  0  0  0  0  0  0
   19.6980   38.5408   -6.5625 H   0  0  0  0  0  0  0  0  0  0  0  0
   20.9648   39.6935   -6.8624 H   0  0  0  0  0  0  0  0  0  0  0  0
   18.7769   38.1101  -10.2582 H   0  0  0  0  0  0  0  0  0  0  0  0
   19.7146   37.0527   -9.2407 H   0  0  0  0  0  0  0  0  0  0  0  0
   17.3255   36.6839   -8.8465 H   0  0  0  0  0  0  0  0  0  0  0  0
   18.0194   37.3658   -7.3938 H   0  0  0  0  0  0  0  0  0  0  0  0
   15.2704   37.6077   -7.8337 H   0  0  0  0  0  0  0  0  0  0  0  0
   16.1313   38.5504   -6.6175 H   0  0  0  0  0  0  0  0  0  0  0  0
   14.5308   39.7696   -8.9238 H   0  0  0  0  0  0  0  0  0  0  0  0
   13.8659   39.4257   -7.3513 H   0  0  0  0  0  0  0  0  0  0  0  0
   14.4603   41.7770   -7.4824 H   0  0  0  0  0  0  0  0  0  0  0  0
   15.4089   40.9882   -6.2533 H   0  0  0  0  0  0  0  0  0  0  0  0
   17.3819   40.9466   -7.6890 H   0  0  0  0  0  0  0  0  0  0  0  0
   16.4514   41.4874   -9.0855 H   0  0  0  0  0  0  0  0  0  0  0  0
   16.3592   43.2791   -6.8016 H   0  0  0  0  0  0  0  0  0  0  0  0
   18.5856   42.1442   -9.5776 H   0  0  0  0  0  0  0  0  0  0  0  0
   21.4749   45.1724   -8.5372 H   0  0  0  0  0  0  0  0  0  0  0  0
   21.9591   41.6627  -11.2661 H   0  0  0  0  0  0  0  0  0  0  0  0
   21.6369   38.8106   -9.8535 H   0  0  0  0  0  0  0  0  0  0  0  0
   20.4165   39.7301  -10.6573 H   0  0  0  0  0  0  0  0  0  0  0  0
   23.1859   42.8794   -8.6076 H   0  0  0  0  0  0  0  0  0  0  0  0
   24.1939   41.9420   -7.5831 H   0  0  0  0  0  0  0  0  0  0  0  0
   25.5243   43.2008   -9.0274 H   0  0  0  0  0  0  0  0  0  0  0  0
   24.5423   41.7500  -11.3655 H   0  0  0  0  0  0  0  0  0  0  0  0
   23.9372   43.3362  -10.9555 H   0  0  0  0  0  0  0  0  0  0  0  0
   24.9700   45.1582  -11.9536 H   0  0  0  0  0  0  0  0  0  0  0  0
   26.9225   46.2030  -13.0671 H   0  0  0  0  0  0  0  0  0  0  0  0
   29.0468   44.9535  -13.2873 H   0  0  0  0  0  0  0  0  0  0  0  0
   27.2617   41.5709  -11.2726 H   0  0  0  0  0  0  0  0  0  0  0  0
   30.3938   43.1593  -12.7187 H   0  0  0  0  0  0  0  0  0  0  0  0
   29.2595   41.8754  -14.5211 H   0  0  0  0  0  0  0  0  0  0  0  0
   28.8600   40.6050  -13.3655 H   0  0  0  0  0  0  0  0  0  0  0  0
   30.5393   40.9492  -13.7625 H   0  0  0  0  0  0  0  0  0  0  0  0
   30.1502   42.4933  -10.3232 H   0  0  0  0  0  0  0  0  0  0  0  0
   31.1090   41.3494  -11.2551 H   0  0  0  0  0  0  0  0  0  0  0  0
   29.4512   40.9518  -10.8406 H   0  0  0  0  0  0  0  0  0  0  0  0
   23.9616   39.1253   -8.4499 H   0  0  0  0  0  0  0  0  0  0  0  0
  1  2  1  0  0  0  0
  1 40  1  0  0  0  0
  1 41  1  0  0  0  0
  1 42  1  0  0  0  0
  2 37  1  1  0  0  0
  2 22  1  0  0  0  0
  2  3  1  0  0  0  0
  3  4  1  0  0  0  0
  3 43  1  0  0  0  0
  3 44  1  0  0  0  0
  4  5  1  0  0  0  0
  4 45  1  0  0  0  0
  4 46  1  0  0  0  0
  5  6  1  0  0  0  0
  6  7  1  0  0  0  0
  6 47  1  0  0  0  0
  6 48  1  0  0  0  0
  7  8  1  0  0  0  0
  7 49  1  0  0  0  0
  7 50  1  0  0  0  0
  8  9  1  0  0  0  0
  8 51  1  0  0  0  0
  8 52  1  0  0  0  0
  9 10  1  0  0  0  0
  9 53  1  0  0  0  0
  9 54  1  0  0  0  0
 10 11  1  0  0  0  0
 10 55  1  0  0  0  0
 11 16  1  0  0  0  0
 11 12  2  0  0  0  0
 12 13  1  0  0  0  0
 12 56  1  0  0  0  0
 13 14  2  0  0  0  0
 13 18  1  0  0  0  0
 14 15  1  0  0  0  0
 14 57  1  0  0  0  0
 15 16  2  0  0  0  0
 15 17  1  0  0  0  0
 18 19  2  0  0  0  0
 18 20  1  0  0  0  0
 20 21  1  0  0  0  0
 20 58  1  0  0  0  0
 21 38  1  1  0  0  0
 21 22  1  0  0  0  0
 21 23  1  0  0  0  0
 22 59  1  0  0  0  0
 22 60  1  0  0  0  0
 23 39  1  6  0  0  0
 23 24  1  0  0  0  0
 23 36  1  0  0  0  0
 24 25  1  0  0  0  0
 24 61  1  0  0  0  0
 24 62  1  0  0  0  0
 25 26  1  0  0  0  0
 25 63  1  0  0  0  0
 26 27  1  0  0  0  0
 26 64  1  0  0  0  0
 26 65  1  0  0  0  0
 27 32  1  0  0  0  0
 27 28  2  0  0  0  0
 28 29  1  0  0  0  0
 28 66  1  0  0  0  0
 29 30  2  0  0  0  0
 29 67  1  0  0  0  0
 30 31  1  0  0  0  0
 30 68  1  0  0  0  0
 31 32  2  0  0  0  0
 31 33  1  0  0  0  0
 32 69  1  0  0  0  0
 33 34  1  0  0  0  0
 33 35  1  0  0  0  0
 33 70  1  0  0  0  0
 34 71  1  0  0  0  0
 34 72  1  0  0  0  0
 34 73  1  0  0  0  0
 35 74  1  0  0  0  0
 35 75  1  0  0  0  0
 35 76  1  0  0  0  0
 36 77  1  0  0  0  0
M  END
