REMARK energy -5.53575
 OpenBabel10031817233D
Structure written by MMmdl.
 80 81  0  0  1  0  0  0  0  0999 V2000
   21.1265   39.0044   -9.4377 C   0  0  0  0  0  0  0  0  0  0  0  0
   20.1606   39.5432  -10.5036 C   0  0  0  0  0  0  0  0  0  0  0  0
   19.0353   38.5682  -10.8858 C   0  0  0  0  0  0  0  0  0  0  0  0
   18.0564   38.3259   -9.7765 C   0  0  0  0  0  0  0  0  0  0  0  0
   16.8629   39.0540   -9.4962 C   0  0  0  0  0  0  0  0  0  0  0  0
   16.4112   38.5165   -8.3224 C   0  0  0  0  0  0  0  0  0  0  0  0
   17.2596   37.4761   -8.0403 N   0  0  0  0  0  0  0  0  0  0  0  0
   18.2719   37.3487   -8.9128 N   0  0  0  0  0  0  0  0  0  0  0  0
   15.3029   38.8651   -7.3713 C   0  0  0  0  0  0  0  0  0  0  0  0
   14.8980   40.2883   -7.3756 N   0  3  0  0  0  0  0  0  0  0  0  0
   15.9971   41.2843   -7.3303 C   0  0  0  0  0  0  0  0  0  0  0  0
   15.8195   42.3604   -8.4212 C   0  0  2  0  0  0  0  0  0  0  0  0
   17.0515   43.2776   -8.6455 C   0  0  2  0  0  0  0  0  0  0  0  0
   17.6871   43.8006   -7.3369 C   0  0  0  0  0  0  0  0  0  0  0  0
   18.8724   44.7818   -7.4912 C   0  0  1  0  0  0  0  0  0  0  0  0
   19.2582   45.3770   -6.1171 C   0  0  0  0  0  0  0  0  0  0  0  0
   20.0175   46.7127   -6.1887 C   0  0  0  0  0  0  0  0  0  0  0  0
   19.0926   47.9100   -6.4731 C   0  0  0  0  0  0  0  0  0  0  0  0
   19.8301   49.2473   -6.6607 C   0  0  0  0  0  0  0  0  0  0  0  0
   20.8497   49.2847   -7.8181 C   0  0  0  0  0  0  0  0  0  0  0  0
   20.2893   48.8523   -9.1828 C   0  0  0  0  0  0  0  0  0  0  0  0
   19.2357   49.7285   -9.5575 O   0  0  0  0  0  0  0  0  0  0  0  0
   18.5818   49.3680  -10.7710 C   0  0  0  0  0  0  0  0  0  0  0  0
   17.6038   48.1951  -10.5390 C   0  0  0  0  0  0  0  0  0  0  0  0
   16.8589   48.2716   -9.5590 O   0  0  0  0  0  0  0  0  0  0  0  0
   17.5564   47.1486  -11.4061 N   0  0  0  0  0  0  0  0  0  0  0  0
   16.5383   46.0828  -11.2283 C   0  0  2  0  0  0  0  0  0  0  0  0
   17.1551   44.8050  -10.6354 C   0  0  0  0  0  0  0  0  0  0  0  0
   18.0518   44.1962  -11.2187 O   0  0  0  0  0  0  0  0  0  0  0  0
   16.6347   44.4093   -9.4683 N   0  0  0  0  0  0  0  0  0  0  0  0
   15.8304   45.7585  -12.5569 C   0  0  0  0  0  0  0  0  0  0  0  0
   18.5556   46.9920  -12.4721 C   0  0  0  0  0  0  0  0  0  0  0  0
   20.0824   44.1094   -8.1708 C   0  0  0  0  0  0  0  0  0  0  0  0
   14.7111   43.1425   -8.0401 O   0  0  0  0  0  0  0  0  0  0  0  0
   17.1120   36.8441   -7.2495 H   0  0  0  0  0  0  0  0  0  0  0  0
   15.5715   41.8898   -9.3733 H   0  0  0  0  0  0  0  0  0  0  0  0
   17.8007   42.6828   -9.1718 H   0  0  0  0  0  0  0  0  0  0  0  0
   18.5451   45.6069   -8.1203 H   0  0  0  0  0  0  0  0  0  0  0  0
   15.7372   46.4154  -10.5645 H   0  0  0  0  0  0  0  0  0  0  0  0
   21.9311   39.7154   -9.2555 H   0  0  0  0  0  0  0  0  0  0  0  0
   21.5816   38.0662   -9.7609 H   0  0  0  0  0  0  0  0  0  0  0  0
   20.6288   38.8320   -8.4817 H   0  0  0  0  0  0  0  0  0  0  0  0
   20.7397   39.7723  -11.3970 H   0  0  0  0  0  0  0  0  0  0  0  0
   19.7354   40.4890  -10.1752 H   0  0  0  0  0  0  0  0  0  0  0  0
   19.4711   37.6281  -11.2271 H   0  0  0  0  0  0  0  0  0  0  0  0
   18.4876   38.9640  -11.7372 H   0  0  0  0  0  0  0  0  0  0  0  0
   16.4522   39.8854  -10.0462 H   0  0  0  0  0  0  0  0  0  0  0  0
   15.6455   38.6490   -6.3636 H   0  0  0  0  0  0  0  0  0  0  0  0
   14.4323   38.2317   -7.5410 H   0  0  0  0  0  0  0  0  0  0  0  0
   14.3126   40.4500   -6.5597 H   0  0  0  0  0  0  0  0  0  0  0  0
   16.9804   40.8213   -7.4146 H   0  0  0  0  0  0  0  0  0  0  0  0
   15.9908   41.7471   -6.3465 H   0  0  0  0  0  0  0  0  0  0  0  0
   16.9049   44.2943   -6.7640 H   0  0  0  0  0  0  0  0  0  0  0  0
   18.0260   42.9573   -6.7384 H   0  0  0  0  0  0  0  0  0  0  0  0
   18.3641   45.5429   -5.5238 H   0  0  0  0  0  0  0  0  0  0  0  0
   19.8476   44.6418   -5.5694 H   0  0  0  0  0  0  0  0  0  0  0  0
   20.8022   46.6447   -6.9389 H   0  0  0  0  0  0  0  0  0  0  0  0
   20.5274   46.8870   -5.2408 H   0  0  0  0  0  0  0  0  0  0  0  0
   18.4865   47.7112   -7.3552 H   0  0  0  0  0  0  0  0  0  0  0  0
   18.3793   48.0207   -5.6557 H   0  0  0  0  0  0  0  0  0  0  0  0
   20.3298   49.5239   -5.7302 H   0  0  0  0  0  0  0  0  0  0  0  0
   19.0848   50.0228   -6.8320 H   0  0  0  0  0  0  0  0  0  0  0  0
   21.2443   50.2972   -7.9075 H   0  0  0  0  0  0  0  0  0  0  0  0
   21.7046   48.6558   -7.5689 H   0  0  0  0  0  0  0  0  0  0  0  0
   19.9592   47.8116   -9.1527 H   0  0  0  0  0  0  0  0  0  0  0  0
   21.0814   48.9076   -9.9311 H   0  0  0  0  0  0  0  0  0  0  0  0
   19.3227   49.2108  -11.5535 H   0  0  0  0  0  0  0  0  0  0  0  0
   17.9859   50.2223  -11.0865 H   0  0  0  0  0  0  0  0  0  0  0  0
   15.8649   44.9447   -9.0957 H   0  0  0  0  0  0  0  0  0  0  0  0
   14.9457   45.1464  -12.3810 H   0  0  0  0  0  0  0  0  0  0  0  0
   16.4652   45.1976  -13.2386 H   0  0  0  0  0  0  0  0  0  0  0  0
   15.5099   46.6695  -13.0649 H   0  0  0  0  0  0  0  0  0  0  0  0
   18.4690   46.0485  -13.0086 H   0  0  0  0  0  0  0  0  0  0  0  0
   19.5683   47.0152  -12.0639 H   0  0  0  0  0  0  0  0  0  0  0  0
   18.4579   47.7894  -13.2104 H   0  0  0  0  0  0  0  0  0  0  0  0
   20.9180   44.8004   -8.2745 H   0  0  0  0  0  0  0  0  0  0  0  0
   19.8416   43.7676   -9.1763 H   0  0  0  0  0  0  0  0  0  0  0  0
   20.4345   43.2470   -7.6020 H   0  0  0  0  0  0  0  0  0  0  0  0
   14.8587   43.3504   -7.1141 H   0  0  0  0  0  0  0  0  0  0  0  0
   14.3284   40.4620   -8.1923 H   0  0  0  0  0  0  0  0  0  0  0  0
  1  2  1  0  0  0  0
  1 40  1  0  0  0  0
  1 41  1  0  0  0  0
  1 42  1  0  0  0  0
  2  3  1  0  0  0  0
  2 43  1  0  0  0  0
  2 44  1  0  0  0  0
  3 45  1  0  0  0  0
  3 46  1  0  0  0  0
  3  4  1  0  0  0  0
  4  8  2  0  0  0  0
  4  5  1  0  0  0  0
  5  6  2  0  0  0  0
  5 47  1  0  0  0  0
  6  7  1  0  0  0  0
  6  9  1  0  0  0  0
  7  8  1  0  0  0  0
  7 35  1  0  0  0  0
  9 10  1  0  0  0  0
  9 48  1  0  0  0  0
  9 49  1  0  0  0  0
 10 11  1  0  0  0  0
 10 50  1  0  0  0  0
 10 80  1  0  0  0  0
 11 12  1  0  0  0  0
 11 51  1  0  0  0  0
 11 52  1  0  0  0  0
 12 36  1  6  0  0  0
 12 13  1  0  0  0  0
 12 34  1  0  0  0  0
 13 37  1  6  0  0  0
 13 30  1  0  0  0  0
 13 14  1  0  0  0  0
 14 15  1  0  0  0  0
 14 53  1  0  0  0  0
 14 54  1  0  0  0  0
 15 38  1  6  0  0  0
 15 16  1  0  0  0  0
 15 33  1  0  0  0  0
 16 17  1  0  0  0  0
 16 55  1  0  0  0  0
 16 56  1  0  0  0  0
 17 18  1  0  0  0  0
 17 57  1  0  0  0  0
 17 58  1  0  0  0  0
 18 19  1  0  0  0  0
 18 59  1  0  0  0  0
 18 60  1  0  0  0  0
 19 20  1  0  0  0  0
 19 61  1  0  0  0  0
 19 62  1  0  0  0  0
 20 21  1  0  0  0  0
 20 63  1  0  0  0  0
 20 64  1  0  0  0  0
 21 22  1  0  0  0  0
 21 65  1  0  0  0  0
 21 66  1  0  0  0  0
 22 23  1  0  0  0  0
 23 24  1  0  0  0  0
 23 67  1  0  0  0  0
 23 68  1  0  0  0  0
 24 25  2  0  0  0  0
 24 26  1  0  0  0  0
 26 27  1  0  0  0  0
 26 32  1  0  0  0  0
 27 39  1  1  0  0  0
 27 28  1  0  0  0  0
 27 31  1  0  0  0  0
 28 29  2  0  0  0  0
 28 30  1  0  0  0  0
 30 69  1  0  0  0  0
 31 70  1  0  0  0  0
 31 71  1  0  0  0  0
 31 72  1  0  0  0  0
 32 73  1  0  0  0  0
 32 74  1  0  0  0  0
 32 75  1  0  0  0  0
 33 76  1  0  0  0  0
 33 77  1  0  0  0  0
 33 78  1  0  0  0  0
 34 79  1  0  0  0  0
M  CHG  1  10   1
M  END
