REMARK energy -3.42853
 OpenBabel10031817233D
Structure written by MMmdl.
 66 67  0  0  1  0  0  0  0  0999 V2000
   12.8644   44.5440   -8.4397 O   0  0  0  0  0  0  0  0  0  0  0  0
   13.9154   44.2237   -9.3293 C   0  0  0  0  0  0  0  0  0  0  0  0
   15.0807   43.5017   -8.6136 C   0  0  2  0  0  0  0  0  0  0  0  0
   16.3654   43.9933   -8.9243 O   0  0  0  0  0  0  0  0  0  0  0  0
   15.0282   41.9464   -8.5332 C   0  0  1  0  0  0  0  0  0  0  0  0
   14.5079   41.2881   -9.7333 N   0  0  0  0  0  0  0  0  0  0  0  0
   14.9913   41.2545  -10.9834 C   0  0  0  0  0  0  0  0  0  0  0  0
   14.4603   40.5503  -11.8419 O   0  0  0  0  0  0  0  0  0  0  0  0
   16.2733   41.2243   -7.9448 C   0  0  0  0  0  0  0  0  0  0  0  0
   16.1675   39.6713   -7.8421 C   0  0  2  0  0  0  0  0  0  0  0  0
   14.8516   39.2254   -7.1731 C   0  0  0  0  0  0  0  0  0  0  0  0
   17.3355   39.0192   -7.0627 C   0  0  0  0  0  0  0  0  0  0  0  0
   18.7591   39.2189   -7.6014 C   0  0  0  0  0  0  0  0  0  0  0  0
   19.1016   38.2548   -8.7486 C   0  0  0  0  0  0  0  0  0  0  0  0
   20.5722   38.3486   -9.1995 C   0  0  0  0  0  0  0  0  0  0  0  0
   20.7297   38.9575  -10.5924 C   0  0  0  0  0  0  0  0  0  0  0  0
   20.3920   40.4477  -10.6308 C   0  0  0  0  0  0  0  0  0  0  0  0
   20.1745   40.9385  -12.0618 C   0  0  0  0  0  0  0  0  0  0  0  0
   19.7944   42.3021  -12.0397 O   0  0  0  0  0  0  0  0  0  0  0  0
   18.4676   42.6324  -11.8802 C   0  0  0  0  0  0  0  0  0  0  0  0
   17.4402   41.7320  -11.4868 C   0  0  0  0  0  0  0  0  0  0  0  0
   16.1107   42.1865  -11.3637 C   0  0  0  0  0  0  0  0  0  0  0  0
   18.1532   43.9829  -12.1262 C   0  0  0  0  0  0  0  0  0  0  0  0
   16.8316   44.4537  -11.9984 C   0  0  0  0  0  0  0  0  0  0  0  0
   15.8193   43.5272  -11.6916 C   0  0  0  0  0  0  0  0  0  0  0  0
   16.4632   45.8985  -12.2166 C   0  0  0  0  0  0  0  0  0  0  0  0
   15.4295   46.1529  -12.8400 O   0  0  0  0  0  0  0  0  0  0  0  0
   17.2366   46.8741  -11.6800 N   0  0  0  0  0  0  0  0  0  0  0  0
   18.2644   46.6741  -10.6525 C   0  0  0  0  0  0  0  0  0  0  0  0
   16.9744   48.2814  -11.9876 C   0  0  0  0  0  0  0  0  0  0  0  0
   15.0195   43.9015   -7.6378 H   0  0  0  0  0  0  0  0  0  0  0  0
   14.2395   41.7745   -7.8047 H   0  0  0  0  0  0  0  0  0  0  0  0
   16.1771   39.2596   -8.8512 H   0  0  0  0  0  0  0  0  0  0  0  0
   12.4489   43.7355   -8.1674 H   0  0  0  0  0  0  0  0  0  0  0  0
   13.4748   43.6273  -10.1258 H   0  0  0  0  0  0  0  0  0  0  0  0
   14.2811   45.1456   -9.7780 H   0  0  0  0  0  0  0  0  0  0  0  0
   16.9805   43.6048   -8.3200 H   0  0  0  0  0  0  0  0  0  0  0  0
   13.7089   40.6903   -9.5642 H   0  0  0  0  0  0  0  0  0  0  0  0
   17.1459   41.4735   -8.5451 H   0  0  0  0  0  0  0  0  0  0  0  0
   16.4608   41.6328   -6.9502 H   0  0  0  0  0  0  0  0  0  0  0  0
   14.7226   39.6912   -6.1937 H   0  0  0  0  0  0  0  0  0  0  0  0
   14.8349   38.1497   -7.0147 H   0  0  0  0  0  0  0  0  0  0  0  0
   13.9774   39.4546   -7.7783 H   0  0  0  0  0  0  0  0  0  0  0  0
   17.2959   39.3503   -6.0331 H   0  0  0  0  0  0  0  0  0  0  0  0
   17.1702   37.9464   -7.0009 H   0  0  0  0  0  0  0  0  0  0  0  0
   18.9304   40.2569   -7.8808 H   0  0  0  0  0  0  0  0  0  0  0  0
   19.4492   39.0225   -6.7791 H   0  0  0  0  0  0  0  0  0  0  0  0
   18.9016   37.2350   -8.4209 H   0  0  0  0  0  0  0  0  0  0  0  0
   18.4247   38.4218   -9.5886 H   0  0  0  0  0  0  0  0  0  0  0  0
   21.1743   38.8950   -8.4727 H   0  0  0  0  0  0  0  0  0  0  0  0
   20.9956   37.3483   -9.2348 H   0  0  0  0  0  0  0  0  0  0  0  0
   21.7559   38.8242  -10.9340 H   0  0  0  0  0  0  0  0  0  0  0  0
   20.0926   38.4110  -11.2912 H   0  0  0  0  0  0  0  0  0  0  0  0
   19.4984   40.6408  -10.0433 H   0  0  0  0  0  0  0  0  0  0  0  0
   21.1868   41.0205  -10.1546 H   0  0  0  0  0  0  0  0  0  0  0  0
   21.1077   40.8543  -12.6201 H   0  0  0  0  0  0  0  0  0  0  0  0
   19.4481   40.3291  -12.6019 H   0  0  0  0  0  0  0  0  0  0  0  0
   17.6494   40.6931  -11.2822 H   0  0  0  0  0  0  0  0  0  0  0  0
   18.9472   44.6562  -12.4140 H   0  0  0  0  0  0  0  0  0  0  0  0
   14.7966   43.8618  -11.7091 H   0  0  0  0  0  0  0  0  0  0  0  0
   18.0581   45.8109  -10.0194 H   0  0  0  0  0  0  0  0  0  0  0  0
   18.3247   47.5358   -9.9866 H   0  0  0  0  0  0  0  0  0  0  0  0
   19.2452   46.5424  -11.1119 H   0  0  0  0  0  0  0  0  0  0  0  0
   16.6289   48.4197  -13.0140 H   0  0  0  0  0  0  0  0  0  0  0  0
   17.8741   48.8861  -11.8743 H   0  0  0  0  0  0  0  0  0  0  0  0
   16.2135   48.6761  -11.3141 H   0  0  0  0  0  0  0  0  0  0  0  0
  1  2  1  0  0  0  0
  1 34  1  0  0  0  0
  2  3  1  0  0  0  0
  2 35  1  0  0  0  0
  2 36  1  0  0  0  0
  3 31  1  1  0  0  0
  3  4  1  0  0  0  0
  3  5  1  0  0  0  0
  4 37  1  0  0  0  0
  5 32  1  1  0  0  0
  5  6  1  0  0  0  0
  5  9  1  0  0  0  0
  6  7  1  0  0  0  0
  6 38  1  0  0  0  0
  7 22  1  0  0  0  0
  7  8  2  0  0  0  0
  9 10  1  0  0  0  0
  9 39  1  0  0  0  0
  9 40  1  0  0  0  0
 10 33  1  6  0  0  0
 10 11  1  0  0  0  0
 10 12  1  0  0  0  0
 11 41  1  0  0  0  0
 11 42  1  0  0  0  0
 11 43  1  0  0  0  0
 12 13  1  0  0  0  0
 12 44  1  0  0  0  0
 12 45  1  0  0  0  0
 13 14  1  0  0  0  0
 13 46  1  0  0  0  0
 13 47  1  0  0  0  0
 14 15  1  0  0  0  0
 14 48  1  0  0  0  0
 14 49  1  0  0  0  0
 15 16  1  0  0  0  0
 15 50  1  0  0  0  0
 15 51  1  0  0  0  0
 16 17  1  0  0  0  0
 16 52  1  0  0  0  0
 16 53  1  0  0  0  0
 17 18  1  0  0  0  0
 17 54  1  0  0  0  0
 17 55  1  0  0  0  0
 18 19  1  0  0  0  0
 18 56  1  0  0  0  0
 18 57  1  0  0  0  0
 19 20  1  0  0  0  0
 20 21  1  0  0  0  0
 20 23  2  0  0  0  0
 21 22  2  0  0  0  0
 21 58  1  0  0  0  0
 22 25  1  0  0  0  0
 23 24  1  0  0  0  0
 23 59  1  0  0  0  0
 24 25  2  0  0  0  0
 24 26  1  0  0  0  0
 25 60  1  0  0  0  0
 26 27  2  0  0  0  0
 26 28  1  0  0  0  0
 28 29  1  0  0  0  0
 28 30  1  0  0  0  0
 29 61  1  0  0  0  0
 29 62  1  0  0  0  0
 29 63  1  0  0  0  0
 30 64  1  0  0  0  0
 30 65  1  0  0  0  0
 30 66  1  0  0  0  0
M  END
