REMARK energy -0.553053
 OpenBabel10031817233D
Structure written by MMmdl.
 77 79  0  0  1  0  0  0  0  0999 V2000
   20.6292   38.7069   -7.3389 C   0  0  0  0  0  0  0  0  0  0  0  0
   19.8263   39.0420   -8.6113 C   0  0  2  0  0  0  0  0  0  0  0  0
   18.9120   37.8676   -9.0314 C   0  0  0  0  0  0  0  0  0  0  0  0
   17.6740   37.6656   -8.1422 C   0  0  0  0  0  0  0  0  0  0  0  0
   16.7849   38.7514   -8.3409 O   0  0  0  0  0  0  0  0  0  0  0  0
   15.6299   38.6913   -7.5181 C   0  0  0  0  0  0  0  0  0  0  0  0
   14.7010   39.8692   -7.8528 C   0  0  0  0  0  0  0  0  0  0  0  0
   15.1950   41.2439   -7.3616 C   0  0  0  0  0  0  0  0  0  0  0  0
   16.5519   41.6506   -7.9527 C   0  0  0  0  0  0  0  0  0  0  0  0
   16.9009   43.0279   -7.6391 N   0  0  0  0  0  0  0  0  0  0  0  0
   18.2173   43.4153   -7.9122 C   0  0  0  0  0  0  0  0  0  0  0  0
   18.9274   42.9377   -9.0357 C   0  0  0  0  0  0  0  0  0  0  0  0
   20.2313   43.4220   -9.2602 C   0  0  0  0  0  0  0  0  0  0  0  0
   20.7801   44.3392   -8.3461 C   0  0  0  0  0  0  0  0  0  0  0  0
   20.0082   44.7202   -7.2360 C   0  0  0  0  0  0  0  0  0  0  0  0
   18.7453   44.2916   -7.0384 N   0  0  0  0  0  0  0  0  0  0  0  0
   20.6995   45.7851   -6.0765 Cl  0  0  0  0  0  0  0  0  0  0  0  0
   21.0089   43.0055  -10.4686 C   0  0  0  0  0  0  0  0  0  0  0  0
   21.3329   43.8440  -11.2973 O   0  0  0  0  0  0  0  0  0  0  0  0
   21.3184   41.7103  -10.6201 N   0  0  0  0  0  0  0  0  0  0  0  0
   21.5527   40.7618   -9.5316 C   0  0  1  0  0  0  0  0  0  0  0  0
   20.7522   39.4556   -9.7776 C   0  0  0  0  0  0  0  0  0  0  0  0
   23.0832   40.5528   -9.3450 C   0  0  1  0  0  0  0  0  0  0  0  0
   23.8927   41.7566   -8.7924 C   0  0  0  0  0  0  0  0  0  0  0  0
   24.6475   42.4626   -9.8263 N   0  0  0  0  0  0  0  0  0  0  0  0
   25.7003   41.6519  -10.4332 C   0  0  0  0  0  0  0  0  0  0  0  0
   26.6077   42.4709  -11.3224 C   0  0  0  0  0  0  0  0  0  0  0  0
   26.1369   43.6592  -11.9126 C   0  0  0  0  0  0  0  0  0  0  0  0
   26.9865   44.4142  -12.7410 C   0  0  0  0  0  0  0  0  0  0  0  0
   28.3086   43.9915  -12.9737 C   0  0  0  0  0  0  0  0  0  0  0  0
   28.7937   42.8038  -12.3853 C   0  0  0  0  0  0  0  0  0  0  0  0
   27.9298   42.0423  -11.5647 C   0  0  0  0  0  0  0  0  0  0  0  0
   30.2237   42.3610  -12.6778 C   0  0  0  0  0  0  0  0  0  0  0  0
   31.2238   43.2484  -11.9247 C   0  0  0  0  0  0  0  0  0  0  0  0
   30.5618   42.2831  -14.1769 C   0  0  0  0  0  0  0  0  0  0  0  0
   23.2600   39.4844   -8.4336 O   0  0  0  0  0  0  0  0  0  0  0  0
   19.1853   39.8953   -8.3941 H   0  0  0  0  0  0  0  0  0  0  0  0
   21.1839   41.1789   -8.5944 H   0  0  0  0  0  0  0  0  0  0  0  0
   23.5018   40.2072  -10.2896 H   0  0  0  0  0  0  0  0  0  0  0  0
   21.3325   37.8940   -7.5162 H   0  0  0  0  0  0  0  0  0  0  0  0
   19.9783   38.4113   -6.5178 H   0  0  0  0  0  0  0  0  0  0  0  0
   21.2060   39.5614   -6.9851 H   0  0  0  0  0  0  0  0  0  0  0  0
   18.5654   38.0104  -10.0554 H   0  0  0  0  0  0  0  0  0  0  0  0
   19.4954   36.9495   -9.0459 H   0  0  0  0  0  0  0  0  0  0  0  0
   17.1726   36.7378   -8.4190 H   0  0  0  0  0  0  0  0  0  0  0  0
   17.9533   37.5787   -7.0925 H   0  0  0  0  0  0  0  0  0  0  0  0
   15.1042   37.7522   -7.7019 H   0  0  0  0  0  0  0  0  0  0  0  0
   15.9078   38.7098   -6.4632 H   0  0  0  0  0  0  0  0  0  0  0  0
   14.5281   39.8977   -8.9282 H   0  0  0  0  0  0  0  0  0  0  0  0
   13.7269   39.6795   -7.3996 H   0  0  0  0  0  0  0  0  0  0  0  0
   14.4447   41.9895   -7.6277 H   0  0  0  0  0  0  0  0  0  0  0  0
   15.2500   41.2461   -6.2726 H   0  0  0  0  0  0  0  0  0  0  0  0
   17.3305   41.0020   -7.5526 H   0  0  0  0  0  0  0  0  0  0  0  0
   16.5335   41.5075   -9.0327 H   0  0  0  0  0  0  0  0  0  0  0  0
   16.5477   43.3769   -6.7571 H   0  0  0  0  0  0  0  0  0  0  0  0
   18.4946   42.2342   -9.7303 H   0  0  0  0  0  0  0  0  0  0  0  0
   21.7812   44.7217   -8.4804 H   0  0  0  0  0  0  0  0  0  0  0  0
   21.7147   41.4506  -11.5129 H   0  0  0  0  0  0  0  0  0  0  0  0
   21.4218   38.6287  -10.0048 H   0  0  0  0  0  0  0  0  0  0  0  0
   20.1416   39.5750  -10.6737 H   0  0  0  0  0  0  0  0  0  0  0  0
   23.2317   42.4546   -8.2808 H   0  0  0  0  0  0  0  0  0  0  0  0
   24.5880   41.4099   -8.0251 H   0  0  0  0  0  0  0  0  0  0  0  0
   23.9991   42.7320  -10.5613 H   0  0  0  0  0  0  0  0  0  0  0  0
   26.2902   41.1639   -9.6552 H   0  0  0  0  0  0  0  0  0  0  0  0
   25.2808   40.8549  -11.0463 H   0  0  0  0  0  0  0  0  0  0  0  0
   25.1265   44.0014  -11.7340 H   0  0  0  0  0  0  0  0  0  0  0  0
   26.6216   45.3223  -13.1946 H   0  0  0  0  0  0  0  0  0  0  0  0
   28.9495   44.5843  -13.6100 H   0  0  0  0  0  0  0  0  0  0  0  0
   28.2654   41.1233  -11.1124 H   0  0  0  0  0  0  0  0  0  0  0  0
   30.3265   41.3473  -12.2895 H   0  0  0  0  0  0  0  0  0  0  0  0
   31.0622   43.1917  -10.8476 H   0  0  0  0  0  0  0  0  0  0  0  0
   31.1213   44.2938  -12.2115 H   0  0  0  0  0  0  0  0  0  0  0  0
   32.2512   42.9413  -12.1190 H   0  0  0  0  0  0  0  0  0  0  0  0
   29.8475   41.6612  -14.7164 H   0  0  0  0  0  0  0  0  0  0  0  0
   31.5516   41.8527  -14.3260 H   0  0  0  0  0  0  0  0  0  0  0  0
   30.5702   43.2643  -14.6464 H   0  0  0  0  0  0  0  0  0  0  0  0
   23.9343   38.9045   -8.7750 H   0  0  0  0  0  0  0  0  0  0  0  0
  1  2  1  0  0  0  0
  1 40  1  0  0  0  0
  1 41  1  0  0  0  0
  1 42  1  0  0  0  0
  2 37  1  1  0  0  0
  2 22  1  0  0  0  0
  2  3  1  0  0  0  0
  3  4  1  0  0  0  0
  3 43  1  0  0  0  0
  3 44  1  0  0  0  0
  4  5  1  0  0  0  0
  4 45  1  0  0  0  0
  4 46  1  0  0  0  0
  5  6  1  0  0  0  0
  6  7  1  0  0  0  0
  6 47  1  0  0  0  0
  6 48  1  0  0  0  0
  7  8  1  0  0  0  0
  7 49  1  0  0  0  0
  7 50  1  0  0  0  0
  8  9  1  0  0  0  0
  8 51  1  0  0  0  0
  8 52  1  0  0  0  0
  9 10  1  0  0  0  0
  9 53  1  0  0  0  0
  9 54  1  0  0  0  0
 10 11  1  0  0  0  0
 10 55  1  0  0  0  0
 11 16  1  0  0  0  0
 11 12  2  0  0  0  0
 12 13  1  0  0  0  0
 12 56  1  0  0  0  0
 13 14  2  0  0  0  0
 13 18  1  0  0  0  0
 14 15  1  0  0  0  0
 14 57  1  0  0  0  0
 15 16  2  0  0  0  0
 15 17  1  0  0  0  0
 18 19  2  0  0  0  0
 18 20  1  0  0  0  0
 20 21  1  0  0  0  0
 20 58  1  0  0  0  0
 21 38  1  1  0  0  0
 21 22  1  0  0  0  0
 21 23  1  0  0  0  0
 22 59  1  0  0  0  0
 22 60  1  0  0  0  0
 23 39  1  6  0  0  0
 23 24  1  0  0  0  0
 23 36  1  0  0  0  0
 24 25  1  0  0  0  0
 24 61  1  0  0  0  0
 24 62  1  0  0  0  0
 25 26  1  0  0  0  0
 25 63  1  0  0  0  0
 26 27  1  0  0  0  0
 26 64  1  0  0  0  0
 26 65  1  0  0  0  0
 27 32  1  0  0  0  0
 27 28  2  0  0  0  0
 28 29  1  0  0  0  0
 28 66  1  0  0  0  0
 29 30  2  0  0  0  0
 29 67  1  0  0  0  0
 30 31  1  0  0  0  0
 30 68  1  0  0  0  0
 31 32  2  0  0  0  0
 31 33  1  0  0  0  0
 32 69  1  0  0  0  0
 33 34  1  0  0  0  0
 33 35  1  0  0  0  0
 33 70  1  0  0  0  0
 34 71  1  0  0  0  0
 34 72  1  0  0  0  0
 34 73  1  0  0  0  0
 35 74  1  0  0  0  0
 35 75  1  0  0  0  0
 35 76  1  0  0  0  0
 36 77  1  0  0  0  0
M  END
