REMARK energy -3.21384
 OpenBabel10031817233D
Structure written by MMmdl.
 86 90  0  0  1  0  0  0  0  0999 V2000
   22.0107   38.6961   -7.4165 C   0  0  0  0  0  0  0  0  0  0  0  0
   21.1567   39.9456   -7.6622 C   0  0  0  0  0  0  0  0  0  0  0  0
   21.9458   41.0455   -8.3874 C   0  0  0  0  0  0  0  0  0  0  0  0
   19.8577   39.6088   -8.3814 C   0  0  0  0  0  0  0  0  0  0  0  0
   19.8672   39.0041   -9.6532 C   0  0  0  0  0  0  0  0  0  0  0  0
   18.6522   38.6844  -10.2841 C   0  0  0  0  0  0  0  0  0  0  0  0
   17.4228   38.9732   -9.6635 C   0  0  0  0  0  0  0  0  0  0  0  0
   17.3964   39.5905   -8.3974 C   0  0  0  0  0  0  0  0  0  0  0  0
   18.6231   39.8882   -7.7638 C   0  0  0  0  0  0  0  0  0  0  0  0
   16.0951   39.9036   -7.7144 C   0  0  0  0  0  0  0  0  0  0  0  0
   15.8060   39.3502   -6.3554 C   0  0  0  0  0  0  0  0  0  0  0  0
   15.0273   38.8445   -7.5461 C   0  0  0  0  0  0  0  0  0  0  0  0
   15.5189   41.2606   -7.9030 N   0  3  0  0  0  0  0  0  0  0  0  0
   16.4548   42.4088   -7.9271 C   0  0  0  0  0  0  0  0  0  0  0  0
   17.0675   42.6501   -9.3296 C   0  0  2  0  0  0  0  0  0  0  0  0
   18.1494   43.7579   -9.3962 C   0  0  2  0  0  0  0  0  0  0  0  0
   18.9335   43.7001  -10.7332 C   0  0  0  0  0  0  0  0  0  0  0  0
   20.0626   44.7127  -10.8510 C   0  0  0  0  0  0  0  0  0  0  0  0
   19.7885   46.0419  -11.2303 C   0  0  0  0  0  0  0  0  0  0  0  0
   20.8388   46.9733  -11.3381 C   0  0  0  0  0  0  0  0  0  0  0  0
   22.1644   46.5857  -11.0589 C   0  0  0  0  0  0  0  0  0  0  0  0
   22.4535   45.2560  -10.6658 C   0  0  0  0  0  0  0  0  0  0  0  0
   21.3949   44.3281  -10.5871 C   0  0  0  0  0  0  0  0  0  0  0  0
   23.7131   44.7864  -10.3546 O   0  0  0  0  0  0  0  0  0  0  0  0
   24.7936   45.7025  -10.1802 C   0  0  0  0  0  0  0  0  0  0  0  0
   24.6694   46.5188   -8.8782 C   0  0  0  0  0  0  0  0  0  0  0  0
   24.5611   45.6415   -7.6216 C   0  0  0  0  0  0  0  0  0  0  0  0
   24.2269   46.4636   -6.3594 C   0  0  0  0  0  0  0  0  0  0  0  0
   23.7818   45.6383   -5.2399 N   0  0  0  0  0  0  0  0  0  0  0  0
   22.6105   44.8763   -5.3564 C   0  0  0  0  0  0  0  0  0  0  0  0
   21.5911   45.1874   -6.2861 C   0  0  0  0  0  0  0  0  0  0  0  0
   20.4802   44.3381   -6.4430 C   0  0  0  0  0  0  0  0  0  0  0  0
   20.3598   43.1947   -5.6272 C   0  0  0  0  0  0  0  0  0  0  0  0
   21.3236   42.9233   -4.6345 C   0  0  0  0  0  0  0  0  0  0  0  0
   22.4595   43.7516   -4.5216 C   0  0  0  0  0  0  0  0  0  0  0  0
   21.1585   41.7619   -3.7339 C   0  0  0  0  0  0  0  0  0  0  0  0
   20.8130   40.6413   -4.1011 O   0  0  0  0  0  0  0  0  0  0  0  0
   21.3921   42.0367   -2.2547 C   0  0  0  0  0  0  0  0  0  0  0  0
   19.4271   44.6724   -7.4530 C   0  0  0  0  0  0  0  0  0  0  0  0
   18.9834   45.8167   -7.5417 O   0  0  0  0  0  0  0  0  0  0  0  0
   19.0685   43.6605   -8.2599 N   0  0  0  0  0  0  0  0  0  0  0  0
   15.9966   42.9950  -10.1900 O   0  0  0  0  0  0  0  0  0  0  0  0
   17.5130   41.7374   -9.7187 H   0  0  0  0  0  0  0  0  0  0  0  0
   17.6366   44.7200   -9.3457 H   0  0  0  0  0  0  0  0  0  0  0  0
   22.8989   38.9509   -6.8412 H   0  0  0  0  0  0  0  0  0  0  0  0
   22.3379   38.2412   -8.3526 H   0  0  0  0  0  0  0  0  0  0  0  0
   21.4564   37.9488   -6.8476 H   0  0  0  0  0  0  0  0  0  0  0  0
   20.8936   40.3444   -6.6826 H   0  0  0  0  0  0  0  0  0  0  0  0
   22.8512   41.3058   -7.8379 H   0  0  0  0  0  0  0  0  0  0  0  0
   21.3483   41.9516   -8.4720 H   0  0  0  0  0  0  0  0  0  0  0  0
   22.2421   40.7375   -9.3902 H   0  0  0  0  0  0  0  0  0  0  0  0
   20.8023   38.7731  -10.1405 H   0  0  0  0  0  0  0  0  0  0  0  0
   18.6648   38.2020  -11.2460 H   0  0  0  0  0  0  0  0  0  0  0  0
   16.4996   38.7160  -10.1613 H   0  0  0  0  0  0  0  0  0  0  0  0
   18.6140   40.3389   -6.7879 H   0  0  0  0  0  0  0  0  0  0  0  0
   16.5610   38.6871   -5.9425 H   0  0  0  0  0  0  0  0  0  0  0  0
   15.2609   39.9547   -5.6352 H   0  0  0  0  0  0  0  0  0  0  0  0
   13.9782   39.1303   -7.5928 H   0  0  0  0  0  0  0  0  0  0  0  0
   15.2501   37.8279   -7.8663 H   0  0  0  0  0  0  0  0  0  0  0  0
   14.8899   41.4067   -7.1215 H   0  0  0  0  0  0  0  0  0  0  0  0
   17.2096   42.2577   -7.1581 H   0  0  0  0  0  0  0  0  0  0  0  0
   15.9046   43.3040   -7.6400 H   0  0  0  0  0  0  0  0  0  0  0  0
   19.3541   42.7027  -10.8719 H   0  0  0  0  0  0  0  0  0  0  0  0
   18.2525   43.8524  -11.5709 H   0  0  0  0  0  0  0  0  0  0  0  0
   18.7744   46.3513  -11.4375 H   0  0  0  0  0  0  0  0  0  0  0  0
   20.6273   47.9913  -11.6316 H   0  0  0  0  0  0  0  0  0  0  0  0
   22.9418   47.3283  -11.1494 H   0  0  0  0  0  0  0  0  0  0  0  0
   21.6166   43.3101  -10.3043 H   0  0  0  0  0  0  0  0  0  0  0  0
   25.7091   45.1129  -10.1385 H   0  0  0  0  0  0  0  0  0  0  0  0
   24.9051   46.3505  -11.0498 H   0  0  0  0  0  0  0  0  0  0  0  0
   25.5306   47.1803   -8.7840 H   0  0  0  0  0  0  0  0  0  0  0  0
   23.7971   47.1697   -8.9356 H   0  0  0  0  0  0  0  0  0  0  0  0
   23.7905   44.8923   -7.7982 H   0  0  0  0  0  0  0  0  0  0  0  0
   25.4856   45.0828   -7.4701 H   0  0  0  0  0  0  0  0  0  0  0  0
   25.1107   47.0204   -6.0480 H   0  0  0  0  0  0  0  0  0  0  0  0
   23.4654   47.2143   -6.5759 H   0  0  0  0  0  0  0  0  0  0  0  0
   24.4972   45.2900   -4.6086 H   0  0  0  0  0  0  0  0  0  0  0  0
   21.6694   46.0575   -6.9209 H   0  0  0  0  0  0  0  0  0  0  0  0
   19.5015   42.5495   -5.7314 H   0  0  0  0  0  0  0  0  0  0  0  0
   23.2261   43.5193   -3.7956 H   0  0  0  0  0  0  0  0  0  0  0  0
   20.9855   43.0104   -1.9797 H   0  0  0  0  0  0  0  0  0  0  0  0
   22.4576   42.0347   -2.0410 H   0  0  0  0  0  0  0  0  0  0  0  0
   20.9060   41.2778   -1.6435 H   0  0  0  0  0  0  0  0  0  0  0  0
   19.5240   42.7711   -8.1092 H   0  0  0  0  0  0  0  0  0  0  0  0
   16.3358   43.0687  -11.0708 H   0  0  0  0  0  0  0  0  0  0  0  0
   14.9797   41.2804   -8.7565 H   0  0  0  0  0  0  0  0  0  0  0  0
  1  2  1  0  0  0  0
  1 45  1  0  0  0  0
  1 46  1  0  0  0  0
  1 47  1  0  0  0  0
  2  3  1  0  0  0  0
  2  4  1  0  0  0  0
  2 48  1  0  0  0  0
  3 49  1  0  0  0  0
  3 50  1  0  0  0  0
  3 51  1  0  0  0  0
  4  9  1  0  0  0  0
  4  5  2  0  0  0  0
  5  6  1  0  0  0  0
  5 52  1  0  0  0  0
  6  7  2  0  0  0  0
  6 53  1  0  0  0  0
  7  8  1  0  0  0  0
  7 54  1  0  0  0  0
  8  9  2  0  0  0  0
  8 10  1  0  0  0  0
  9 55  1  0  0  0  0
 10 12  1  0  0  0  0
 10 11  1  0  0  0  0
 10 13  1  0  0  0  0
 11 12  1  0  0  0  0
 11 56  1  0  0  0  0
 11 57  1  0  0  0  0
 12 58  1  0  0  0  0
 12 59  1  0  0  0  0
 13 14  1  0  0  0  0
 13 60  1  0  0  0  0
 13 86  1  0  0  0  0
 14 15  1  0  0  0  0
 14 61  1  0  0  0  0
 14 62  1  0  0  0  0
 15 43  1  6  0  0  0
 15 16  1  0  0  0  0
 15 42  1  0  0  0  0
 16 44  1  1  0  0  0
 16 41  1  0  0  0  0
 16 17  1  0  0  0  0
 17 18  1  0  0  0  0
 17 63  1  0  0  0  0
 17 64  1  0  0  0  0
 18 23  1  0  0  0  0
 18 19  2  0  0  0  0
 19 20  1  0  0  0  0
 19 65  1  0  0  0  0
 20 21  2  0  0  0  0
 20 66  1  0  0  0  0
 21 22  1  0  0  0  0
 21 67  1  0  0  0  0
 22 23  2  0  0  0  0
 22 24  1  0  0  0  0
 23 68  1  0  0  0  0
 24 25  1  0  0  0  0
 25 26  1  0  0  0  0
 25 69  1  0  0  0  0
 25 70  1  0  0  0  0
 26 27  1  0  0  0  0
 26 71  1  0  0  0  0
 26 72  1  0  0  0  0
 27 28  1  0  0  0  0
 27 73  1  0  0  0  0
 27 74  1  0  0  0  0
 28 29  1  0  0  0  0
 28 75  1  0  0  0  0
 28 76  1  0  0  0  0
 29 30  1  0  0  0  0
 29 77  1  0  0  0  0
 30 35  1  0  0  0  0
 30 31  2  0  0  0  0
 31 32  1  0  0  0  0
 31 78  1  0  0  0  0
 32 33  2  0  0  0  0
 32 39  1  0  0  0  0
 33 34  1  0  0  0  0
 33 79  1  0  0  0  0
 34 35  2  0  0  0  0
 34 36  1  0  0  0  0
 35 80  1  0  0  0  0
 36 37  2  0  0  0  0
 36 38  1  0  0  0  0
 38 81  1  0  0  0  0
 38 82  1  0  0  0  0
 38 83  1  0  0  0  0
 39 40  2  0  0  0  0
 39 41  1  0  0  0  0
 41 84  1  0  0  0  0
 42 85  1  0  0  0  0
M  CHG  1  13   1
M  END
