REMARK energy -5.44692
 OpenBabel10031817233D
Structure written by MMmdl.
 86 87  0  0  1  0  0  0  0  0999 V2000
   26.5619   43.8915  -10.2200 C   0  0  0  0  0  0  0  0  0  0  0  0
   27.5605   44.7626  -10.6927 C   0  0  0  0  0  0  0  0  0  0  0  0
   28.6419   44.2554  -11.4392 C   0  0  0  0  0  0  0  0  0  0  0  0
   28.7293   42.8746  -11.7228 C   0  0  0  0  0  0  0  0  0  0  0  0
   29.9339   42.3346  -12.4841 C   0  0  0  0  0  0  0  0  0  0  0  0
   30.9418   41.7203  -11.5101 C   0  0  0  0  0  0  0  0  0  0  0  0
   29.5570   41.3496  -13.5980 C   0  0  0  0  0  0  0  0  0  0  0  0
   27.7204   42.0081  -11.2513 C   0  0  0  0  0  0  0  0  0  0  0  0
   26.6369   42.5116  -10.5015 C   0  0  0  0  0  0  0  0  0  0  0  0
   25.5504   41.5799  -10.0085 C   0  0  0  0  0  0  0  0  0  0  0  0
   24.3527   41.7527  -10.8398 N   0  3  0  0  0  0  0  0  0  0  0  0
   23.0978   41.3103  -10.2128 C   0  0  0  0  0  0  0  0  0  0  0  0
   21.9064   42.0679  -10.8311 C   0  0  0  0  0  0  0  0  0  0  0  0
   21.6601   41.5442  -12.1217 O   0  0  0  0  0  0  0  0  0  0  0  0
   22.2703   43.4326  -10.8927 O   0  0  0  0  0  0  0  0  0  0  0  0
   20.6532   41.9909   -9.9131 C   0  0  1  0  0  0  0  0  0  0  0  0
   19.5007   42.6649  -10.5110 N   0  0  0  0  0  0  0  0  0  0  0  0
   18.7404   43.5918   -9.9057 C   0  0  0  0  0  0  0  0  0  0  0  0
   19.0429   44.1145   -8.8332 O   0  0  0  0  0  0  0  0  0  0  0  0
   17.4373   43.9761  -10.6220 C   0  0  2  0  0  0  0  0  0  0  0  0
   17.2618   45.5096  -10.6845 C   0  0  0  0  0  0  0  0  0  0  0  0
   20.2406   40.5830   -9.4050 C   0  0  0  0  0  0  0  0  0  0  0  0
   19.9845   39.4743  -10.4564 C   0  0  2  0  0  0  0  0  0  0  0  0
   18.9276   39.8467  -11.5072 C   0  0  0  0  0  0  0  0  0  0  0  0
   19.7056   38.1034   -9.8000 C   0  0  0  0  0  0  0  0  0  0  0  0
   18.4390   37.9722   -8.9275 C   0  0  0  0  0  0  0  0  0  0  0  0
   17.1417   37.7903   -9.7347 C   0  0  0  0  0  0  0  0  0  0  0  0
   15.9000   37.4935   -8.8907 C   0  0  0  0  0  0  0  0  0  0  0  0
   15.5333   38.5643   -7.8413 C   0  0  0  0  0  0  0  0  0  0  0  0
   15.4584   40.0115   -8.3634 C   0  0  0  0  0  0  0  0  0  0  0  0
   14.4781   40.2237   -9.5354 C   0  0  0  0  0  0  0  0  0  0  0  0
   14.3413   41.6981   -9.9596 C   0  0  0  0  0  0  0  0  0  0  0  0
   15.6307   42.2915  -10.5659 C   0  0  0  0  0  0  0  0  0  0  0  0
   16.0394   41.7970  -11.6206 O   0  0  0  0  0  0  0  0  0  0  0  0
   16.2625   43.3396   -9.9747 N   0  0  0  0  0  0  0  0  0  0  0  0
   15.8890   43.7865   -8.6234 C   0  0  0  0  0  0  0  0  0  0  0  0
   20.9218   42.5330   -9.0044 H   0  0  0  0  0  0  0  0  0  0  0  0
   17.5327   43.6613  -11.6616 H   0  0  0  0  0  0  0  0  0  0  0  0
   20.9124   39.3210  -11.0075 H   0  0  0  0  0  0  0  0  0  0  0  0
   25.7378   44.2887   -9.6451 H   0  0  0  0  0  0  0  0  0  0  0  0
   27.5053   45.8194  -10.4744 H   0  0  0  0  0  0  0  0  0  0  0  0
   29.4142   44.9281  -11.7789 H   0  0  0  0  0  0  0  0  0  0  0  0
   30.4275   43.1774  -12.9653 H   0  0  0  0  0  0  0  0  0  0  0  0
   31.2759   42.4530  -10.7756 H   0  0  0  0  0  0  0  0  0  0  0  0
   31.8204   41.3554  -12.0414 H   0  0  0  0  0  0  0  0  0  0  0  0
   30.5065   40.8799  -10.9709 H   0  0  0  0  0  0  0  0  0  0  0  0
   28.8632   41.7940  -14.3099 H   0  0  0  0  0  0  0  0  0  0  0  0
   29.1034   40.4383  -13.2145 H   0  0  0  0  0  0  0  0  0  0  0  0
   30.4409   41.0476  -14.1601 H   0  0  0  0  0  0  0  0  0  0  0  0
   27.7818   40.9504  -11.4487 H   0  0  0  0  0  0  0  0  0  0  0  0
   25.2918   41.8375   -8.9799 H   0  0  0  0  0  0  0  0  0  0  0  0
   25.8745   40.5384  -10.0274 H   0  0  0  0  0  0  0  0  0  0  0  0
   24.4597   41.3008  -11.7459 H   0  0  0  0  0  0  0  0  0  0  0  0
   23.1337   41.5388   -9.1457 H   0  0  0  0  0  0  0  0  0  0  0  0
   22.9971   40.2276  -10.3024 H   0  0  0  0  0  0  0  0  0  0  0  0
   22.4828   41.3533  -12.5560 H   0  0  0  0  0  0  0  0  0  0  0  0
   21.4932   43.9277  -11.1183 H   0  0  0  0  0  0  0  0  0  0  0  0
   19.1933   42.2964  -11.4045 H   0  0  0  0  0  0  0  0  0  0  0  0
   18.0793   45.9682  -11.2419 H   0  0  0  0  0  0  0  0  0  0  0  0
   17.2487   45.9852   -9.7058 H   0  0  0  0  0  0  0  0  0  0  0  0
   16.3360   45.7732  -11.1943 H   0  0  0  0  0  0  0  0  0  0  0  0
   21.0002   40.2250   -8.7094 H   0  0  0  0  0  0  0  0  0  0  0  0
   19.3465   40.7100   -8.7906 H   0  0  0  0  0  0  0  0  0  0  0  0
   18.5909   38.9613  -12.0389 H   0  0  0  0  0  0  0  0  0  0  0  0
   19.3083   40.5373  -12.2588 H   0  0  0  0  0  0  0  0  0  0  0  0
   18.0604   40.3155  -11.0450 H   0  0  0  0  0  0  0  0  0  0  0  0
   19.6636   37.3500  -10.5875 H   0  0  0  0  0  0  0  0  0  0  0  0
   20.5714   37.8324   -9.1929 H   0  0  0  0  0  0  0  0  0  0  0  0
   18.3558   38.8065   -8.2338 H   0  0  0  0  0  0  0  0  0  0  0  0
   18.5528   37.0929   -8.2959 H   0  0  0  0  0  0  0  0  0  0  0  0
   16.9289   38.6597  -10.3500 H   0  0  0  0  0  0  0  0  0  0  0  0
   17.2800   36.9640  -10.4289 H   0  0  0  0  0  0  0  0  0  0  0  0
   16.0539   36.5352   -8.3993 H   0  0  0  0  0  0  0  0  0  0  0  0
   15.0521   37.3474   -9.5619 H   0  0  0  0  0  0  0  0  0  0  0  0
   14.5809   38.2977   -7.3812 H   0  0  0  0  0  0  0  0  0  0  0  0
   16.2572   38.5353   -7.0235 H   0  0  0  0  0  0  0  0  0  0  0  0
   16.4585   40.3417   -8.6513 H   0  0  0  0  0  0  0  0  0  0  0  0
   15.1624   40.6554   -7.5336 H   0  0  0  0  0  0  0  0  0  0  0  0
   14.7853   39.6278  -10.3952 H   0  0  0  0  0  0  0  0  0  0  0  0
   13.4955   39.8427   -9.2555 H   0  0  0  0  0  0  0  0  0  0  0  0
   13.9496   42.2770   -9.1272 H   0  0  0  0  0  0  0  0  0  0  0  0
   13.5703   41.7592  -10.7283 H   0  0  0  0  0  0  0  0  0  0  0  0
   16.5851   44.5059   -8.1959 H   0  0  0  0  0  0  0  0  0  0  0  0
   15.8560   42.9492   -7.9245 H   0  0  0  0  0  0  0  0  0  0  0  0
   14.9111   44.2668   -8.6336 H   0  0  0  0  0  0  0  0  0  0  0  0
   24.2204   42.7441  -11.0048 H   0  0  0  0  0  0  0  0  0  0  0  0
  1  9  1  0  0  0  0
  1  2  2  0  0  0  0
  1 40  1  0  0  0  0
  2  3  1  0  0  0  0
  2 41  1  0  0  0  0
  3  4  2  0  0  0  0
  3 42  1  0  0  0  0
  4  5  1  0  0  0  0
  4  8  1  0  0  0  0
  5  6  1  0  0  0  0
  5  7  1  0  0  0  0
  5 43  1  0  0  0  0
  6 44  1  0  0  0  0
  6 45  1  0  0  0  0
  6 46  1  0  0  0  0
  7 47  1  0  0  0  0
  7 48  1  0  0  0  0
  7 49  1  0  0  0  0
  8  9  2  0  0  0  0
  8 50  1  0  0  0  0
  9 10  1  0  0  0  0
 10 11  1  0  0  0  0
 10 51  1  0  0  0  0
 10 52  1  0  0  0  0
 11 12  1  0  0  0  0
 11 53  1  0  0  0  0
 11 86  1  0  0  0  0
 12 13  1  0  0  0  0
 12 54  1  0  0  0  0
 12 55  1  0  0  0  0
 13 14  1  0  0  0  0
 13 15  1  0  0  0  0
 13 16  1  0  0  0  0
 14 56  1  0  0  0  0
 15 57  1  0  0  0  0
 16 37  1  1  0  0  0
 16 17  1  0  0  0  0
 16 22  1  0  0  0  0
 17 18  1  0  0  0  0
 17 58  1  0  0  0  0
 18 19  2  0  0  0  0
 18 20  1  0  0  0  0
 20 38  1  6  0  0  0
 20 35  1  0  0  0  0
 20 21  1  0  0  0  0
 21 59  1  0  0  0  0
 21 60  1  0  0  0  0
 21 61  1  0  0  0  0
 22 23  1  0  0  0  0
 22 62  1  0  0  0  0
 22 63  1  0  0  0  0
 23 39  1  6  0  0  0
 23 24  1  0  0  0  0
 23 25  1  0  0  0  0
 24 64  1  0  0  0  0
 24 65  1  0  0  0  0
 24 66  1  0  0  0  0
 25 26  1  0  0  0  0
 25 67  1  0  0  0  0
 25 68  1  0  0  0  0
 26 27  1  0  0  0  0
 26 69  1  0  0  0  0
 26 70  1  0  0  0  0
 27 28  1  0  0  0  0
 27 71  1  0  0  0  0
 27 72  1  0  0  0  0
 28 29  1  0  0  0  0
 28 73  1  0  0  0  0
 28 74  1  0  0  0  0
 29 30  1  0  0  0  0
 29 75  1  0  0  0  0
 29 76  1  0  0  0  0
 30 31  1  0  0  0  0
 30 77  1  0  0  0  0
 30 78  1  0  0  0  0
 31 32  1  0  0  0  0
 31 79  1  0  0  0  0
 31 80  1  0  0  0  0
 32 33  1  0  0  0  0
 32 81  1  0  0  0  0
 32 82  1  0  0  0  0
 33 34  2  0  0  0  0
 33 35  1  0  0  0  0
 35 36  1  0  0  0  0
 36 83  1  0  0  0  0
 36 84  1  0  0  0  0
 36 85  1  0  0  0  0
M  CHG  1  11   1
M  END
