REMARK energy -2.8053
 OpenBabel10031817233D
Structure written by MMmdl.
 78 81  0  0  1  0  0  0  0  0999 V2000
   16.1080   46.7261  -11.5858 C   0  0  0  0  0  0  0  0  0  0  0  0
   15.1282   45.9902  -12.5225 C   0  0  0  0  0  0  0  0  0  0  0  0
   14.2752   47.0112  -13.2988 C   0  0  0  0  0  0  0  0  0  0  0  0
   14.2662   44.9149  -11.8458 C   0  0  0  0  0  0  0  0  0  0  0  0
   13.2576   44.2447  -12.5787 C   0  0  0  0  0  0  0  0  0  0  0  0
   12.4591   43.2550  -11.9748 C   0  0  0  0  0  0  0  0  0  0  0  0
   12.6496   42.9276  -10.6205 C   0  0  0  0  0  0  0  0  0  0  0  0
   13.6510   43.5817   -9.8771 C   0  0  0  0  0  0  0  0  0  0  0  0
   14.4597   44.5503  -10.4935 C   0  0  0  0  0  0  0  0  0  0  0  0
   13.8254   43.2793   -8.4026 C   0  0  0  0  0  0  0  0  0  0  0  0
   14.8947   42.3378   -8.0708 N   0  0  0  0  0  0  0  0  0  0  0  0
   14.8965   41.0558   -8.7903 C   0  0  0  0  0  0  0  0  0  0  0  0
   15.8184   40.0111   -8.1151 C   0  0  2  0  0  0  0  0  0  0  0  0
   17.3335   40.1305   -8.4591 C   0  0  2  0  0  0  0  0  0  0  0  0
   18.1478   38.9859   -7.7953 C   0  0  0  0  0  0  0  0  0  0  0  0
   19.6344   39.2556   -7.5971 C   0  0  0  0  0  0  0  0  0  0  0  0
   20.5288   39.1744   -8.6849 C   0  0  0  0  0  0  0  0  0  0  0  0
   21.9067   39.3824   -8.4798 C   0  0  0  0  0  0  0  0  0  0  0  0
   22.3969   39.6661   -7.1901 C   0  0  0  0  0  0  0  0  0  0  0  0
   21.5111   39.7447   -6.0943 C   0  0  0  0  0  0  0  0  0  0  0  0
   20.1302   39.5525   -6.3095 C   0  0  0  0  0  0  0  0  0  0  0  0
   22.0406   39.9896   -4.6874 C   0  0  0  0  0  0  0  0  0  0  0  0
   22.5375   41.4252   -4.4677 C   0  0  0  0  0  0  0  0  0  0  0  0
   21.4148   42.4748   -4.4425 C   0  0  0  0  0  0  0  0  0  0  0  0
   21.8092   43.7315   -5.2304 C   0  0  0  0  0  0  0  0  0  0  0  0
   20.7576   44.7340   -5.2410 N   0  0  0  0  0  0  0  0  0  0  0  0
   19.7607   44.7497   -6.2145 C   0  0  0  0  0  0  0  0  0  0  0  0
   19.4639   43.6267   -7.0126 C   0  0  0  0  0  0  0  0  0  0  0  0
   18.4331   43.7264   -7.9660 C   0  0  0  0  0  0  0  0  0  0  0  0
   17.7925   44.9711   -8.1272 C   0  0  0  0  0  0  0  0  0  0  0  0
   18.1484   46.0353   -7.2791 C   0  0  0  0  0  0  0  0  0  0  0  0
   19.0994   45.9200   -6.3205 N   0  0  0  0  0  0  0  0  0  0  0  0
   17.4943   47.2413   -7.4240 O   0  0  0  0  0  0  0  0  0  0  0  0
   17.8439   48.3085   -6.5477 C   0  0  0  0  0  0  0  0  0  0  0  0
   18.0242   42.5331   -8.7735 C   0  0  0  0  0  0  0  0  0  0  0  0
   17.7800   42.6173   -9.9785 O   0  0  0  0  0  0  0  0  0  0  0  0
   17.8646   41.4237   -8.0347 N   0  0  0  0  0  0  0  0  0  0  0  0
   15.3735   38.7316   -8.5291 O   0  0  0  0  0  0  0  0  0  0  0  0
   15.6721   40.0564   -7.0333 H   0  0  0  0  0  0  0  0  0  0  0  0
   17.4673   40.0464   -9.5389 H   0  0  0  0  0  0  0  0  0  0  0  0
   16.8085   46.0345  -11.1161 H   0  0  0  0  0  0  0  0  0  0  0  0
   15.5947   47.2829  -10.8015 H   0  0  0  0  0  0  0  0  0  0  0  0
   16.7098   47.4430  -12.1438 H   0  0  0  0  0  0  0  0  0  0  0  0
   15.7541   45.4617  -13.2400 H   0  0  0  0  0  0  0  0  0  0  0  0
   13.7051   46.5509  -14.1052 H   0  0  0  0  0  0  0  0  0  0  0  0
   14.9005   47.7800  -13.7530 H   0  0  0  0  0  0  0  0  0  0  0  0
   13.5602   47.5049  -12.6431 H   0  0  0  0  0  0  0  0  0  0  0  0
   13.0969   44.4634  -13.6237 H   0  0  0  0  0  0  0  0  0  0  0  0
   11.7008   42.7489  -12.5553 H   0  0  0  0  0  0  0  0  0  0  0  0
   12.0358   42.1694  -10.1516 H   0  0  0  0  0  0  0  0  0  0  0  0
   15.2052   45.0379   -9.8897 H   0  0  0  0  0  0  0  0  0  0  0  0
   14.0256   44.2240   -7.8982 H   0  0  0  0  0  0  0  0  0  0  0  0
   12.8729   42.9500   -7.9993 H   0  0  0  0  0  0  0  0  0  0  0  0
   14.8746   42.1683   -7.0637 H   0  0  0  0  0  0  0  0  0  0  0  0
   13.8880   40.6511   -8.8408 H   0  0  0  0  0  0  0  0  0  0  0  0
   15.1971   41.2020   -9.8289 H   0  0  0  0  0  0  0  0  0  0  0  0
   17.7234   38.7632   -6.8148 H   0  0  0  0  0  0  0  0  0  0  0  0
   18.0344   38.0655   -8.3709 H   0  0  0  0  0  0  0  0  0  0  0  0
   20.1615   38.9420   -9.6737 H   0  0  0  0  0  0  0  0  0  0  0  0
   22.5951   39.3137   -9.3105 H   0  0  0  0  0  0  0  0  0  0  0  0
   23.4581   39.8029   -7.0420 H   0  0  0  0  0  0  0  0  0  0  0  0
   19.4452   39.6190   -5.4762 H   0  0  0  0  0  0  0  0  0  0  0  0
   21.2709   39.7503   -3.9538 H   0  0  0  0  0  0  0  0  0  0  0  0
   22.8583   39.2946   -4.4961 H   0  0  0  0  0  0  0  0  0  0  0  0
   23.0899   41.4811   -3.5292 H   0  0  0  0  0  0  0  0  0  0  0  0
   23.2597   41.6691   -5.2452 H   0  0  0  0  0  0  0  0  0  0  0  0
   20.4948   42.0534   -4.8454 H   0  0  0  0  0  0  0  0  0  0  0  0
   21.1853   42.7368   -3.4075 H   0  0  0  0  0  0  0  0  0  0  0  0
   22.6983   44.1748   -4.7803 H   0  0  0  0  0  0  0  0  0  0  0  0
   22.0811   43.4711   -6.2546 H   0  0  0  0  0  0  0  0  0  0  0  0
   20.8602   45.5345   -4.6317 H   0  0  0  0  0  0  0  0  0  0  0  0
   19.9950   42.6936   -6.8983 H   0  0  0  0  0  0  0  0  0  0  0  0
   17.0191   45.0948   -8.8639 H   0  0  0  0  0  0  0  0  0  0  0  0
   17.2401   49.1842   -6.7847 H   0  0  0  0  0  0  0  0  0  0  0  0
   18.8915   48.5909   -6.6596 H   0  0  0  0  0  0  0  0  0  0  0  0
   17.6551   48.0450   -5.5061 H   0  0  0  0  0  0  0  0  0  0  0  0
   18.0565   41.5106   -7.0441 H   0  0  0  0  0  0  0  0  0  0  0  0
   15.5309   38.1163   -7.8233 H   0  0  0  0  0  0  0  0  0  0  0  0
  1  2  1  0  0  0  0
  1 41  1  0  0  0  0
  1 42  1  0  0  0  0
  1 43  1  0  0  0  0
  2  3  1  0  0  0  0
  2  4  1  0  0  0  0
  2 44  1  0  0  0  0
  3 45  1  0  0  0  0
  3 46  1  0  0  0  0
  3 47  1  0  0  0  0
  4  9  1  0  0  0  0
  4  5  2  0  0  0  0
  5  6  1  0  0  0  0
  5 48  1  0  0  0  0
  6  7  2  0  0  0  0
  6 49  1  0  0  0  0
  7  8  1  0  0  0  0
  7 50  1  0  0  0  0
  8  9  2  0  0  0  0
  8 10  1  0  0  0  0
  9 51  1  0  0  0  0
 10 11  1  0  0  0  0
 10 52  1  0  0  0  0
 10 53  1  0  0  0  0
 11 12  1  0  0  0  0
 11 54  1  0  0  0  0
 12 13  1  0  0  0  0
 12 55  1  0  0  0  0
 12 56  1  0  0  0  0
 13 39  1  1  0  0  0
 13 14  1  0  0  0  0
 13 38  1  0  0  0  0
 14 40  1  6  0  0  0
 14 37  1  0  0  0  0
 14 15  1  0  0  0  0
 15 16  1  0  0  0  0
 15 57  1  0  0  0  0
 15 58  1  0  0  0  0
 16 21  1  0  0  0  0
 16 17  2  0  0  0  0
 17 18  1  0  0  0  0
 17 59  1  0  0  0  0
 18 19  2  0  0  0  0
 18 60  1  0  0  0  0
 19 20  1  0  0  0  0
 19 61  1  0  0  0  0
 20 21  2  0  0  0  0
 20 22  1  0  0  0  0
 21 62  1  0  0  0  0
 22 23  1  0  0  0  0
 22 63  1  0  0  0  0
 22 64  1  0  0  0  0
 23 24  1  0  0  0  0
 23 65  1  0  0  0  0
 23 66  1  0  0  0  0
 24 25  1  0  0  0  0
 24 67  1  0  0  0  0
 24 68  1  0  0  0  0
 25 26  1  0  0  0  0
 25 69  1  0  0  0  0
 25 70  1  0  0  0  0
 26 27  1  0  0  0  0
 26 71  1  0  0  0  0
 27 32  1  0  0  0  0
 27 28  2  0  0  0  0
 28 29  1  0  0  0  0
 28 72  1  0  0  0  0
 29 30  2  0  0  0  0
 29 35  1  0  0  0  0
 30 31  1  0  0  0  0
 30 73  1  0  0  0  0
 31 32  2  0  0  0  0
 31 33  1  0  0  0  0
 33 34  1  0  0  0  0
 34 74  1  0  0  0  0
 34 75  1  0  0  0  0
 34 76  1  0  0  0  0
 35 36  2  0  0  0  0
 35 37  1  0  0  0  0
 37 77  1  0  0  0  0
 38 78  1  0  0  0  0
M  END
