REMARK energy -0.990385
 OpenBabel09281823033D
Structure written by MMmdl.
 98102  0  0  1  0  0  0  0  0999 V2000
   17.6562   38.1192   -9.8418 C   0  0  0  0  0  0  0  0  0  0  0  0
   17.5169   39.2124   -8.7683 C   0  0  2  0  0  0  0  0  0  0  0  0
   17.7795   38.6473   -7.3528 C   0  0  0  0  0  0  0  0  0  0  0  0
   19.2826   38.5213   -7.0234 C   0  0  0  0  0  0  0  0  0  0  0  0
   19.9072   39.8587   -6.5866 C   0  0  0  0  0  0  0  0  0  0  0  0
   21.4320   39.9408   -6.7619 C   0  0  0  0  0  0  0  0  0  0  0  0
   22.0129   41.3072   -6.3304 C   0  0  0  0  0  0  0  0  0  0  0  0
   21.4733   42.4377   -7.1181 N   0  0  0  0  0  0  0  0  0  0  0  0
   21.9575   42.6493   -8.3731 C   0  0  0  0  0  0  0  0  0  0  0  0
   23.0419   42.2163   -8.7614 O   0  0  0  0  0  0  0  0  0  0  0  0
   21.0486   43.2954   -9.3750 C   0  0  0  0  0  0  0  0  0  0  0  0
   21.3717   44.5332   -9.9702 C   0  0  0  0  0  0  0  0  0  0  0  0
   20.5000   45.1121  -10.9239 C   0  0  0  0  0  0  0  0  0  0  0  0
   19.3081   44.4418  -11.2806 C   0  0  0  0  0  0  0  0  0  0  0  0
   18.9856   43.1982  -10.6976 C   0  0  0  0  0  0  0  0  0  0  0  0
   19.8787   42.6207   -9.7704 C   0  0  0  0  0  0  0  0  0  0  0  0
   17.7217   42.4847  -11.0696 C   0  0  0  0  0  0  0  0  0  0  0  0
   17.2600   42.5467  -12.2090 O   0  0  0  0  0  0  0  0  0  0  0  0
   17.1316   41.8542  -10.0417 N   0  0  0  0  0  0  0  0  0  0  0  0
   16.0267   40.8999  -10.0955 C   0  0  1  0  0  0  0  0  0  0  0  0
   16.1550   39.9521   -8.8743 C   0  0  0  0  0  0  0  0  0  0  0  0
   14.6169   41.5748  -10.1940 C   0  0  1  0  0  0  0  0  0  0  0  0
   14.5554   43.1151   -9.9303 C   0  0  0  0  0  0  0  0  0  0  0  0
   13.3578   43.7988  -10.4504 N   0  0  0  0  0  0  0  0  0  0  0  0
   13.4008   44.1259  -11.8838 C   0  0  0  0  0  0  0  0  0  0  0  0
   14.0472   45.4547  -12.2628 C   0  0  0  0  0  0  0  0  0  0  0  0
   15.4418   45.6542  -12.1493 C   0  0  0  0  0  0  0  0  0  0  0  0
   16.0333   46.8394  -12.6250 C   0  0  0  0  0  0  0  0  0  0  0  0
   15.2423   47.8343  -13.2306 C   0  0  0  0  0  0  0  0  0  0  0  0
   13.8409   47.6621  -13.3342 C   0  0  0  0  0  0  0  0  0  0  0  0
   13.2598   46.4727  -12.8391 C   0  0  0  0  0  0  0  0  0  0  0  0
   12.9356   48.7126  -13.9806 C   0  0  0  0  0  0  0  0  0  0  0  0
   12.4256   48.2315  -15.3459 C   0  0  0  0  0  0  0  0  0  0  0  0
   13.5748   50.1085  -14.0927 C   0  0  0  0  0  0  0  0  0  0  0  0
   14.0600   41.1787  -11.4354 O   0  0  0  0  0  0  0  0  0  0  0  0
   20.8204   46.4022  -11.5303 C   0  0  0  0  0  0  0  0  0  0  0  0
   21.9198   47.1429  -11.3771 N   0  0  0  0  0  0  0  0  0  0  0  0
   21.7215   48.2612  -12.1747 C   0  0  0  0  0  0  0  0  0  0  0  0
   20.4904   48.1449  -12.7691 C   0  0  0  0  0  0  0  0  0  0  0  0
   19.9075   46.9740  -12.3655 O   0  0  0  0  0  0  0  0  0  0  0  0
   20.6993   43.4523   -6.3539 C   0  0  2  0  0  0  0  0  0  0  0  0
   19.2335   43.6517   -6.7987 C   0  0  0  0  0  0  0  0  0  0  0  0
   21.4797   44.7568   -6.1664 C   0  0  0  0  0  0  0  0  0  0  0  0
   22.6385   44.7466   -5.3595 C   0  0  0  0  0  0  0  0  0  0  0  0
   23.3854   45.9252   -5.1651 C   0  0  0  0  0  0  0  0  0  0  0  0
   22.9823   47.1254   -5.7760 C   0  0  0  0  0  0  0  0  0  0  0  0
   21.8313   47.1461   -6.5860 C   0  0  0  0  0  0  0  0  0  0  0  0
   21.0841   45.9679   -6.7837 C   0  0  0  0  0  0  0  0  0  0  0  0
   18.3090   39.9290   -8.9551 H   0  0  0  0  0  0  0  0  0  0  0  0
   16.1859   40.2853  -10.9838 H   0  0  0  0  0  0  0  0  0  0  0  0
   13.9623   41.1080   -9.4575 H   0  0  0  0  0  0  0  0  0  0  0  0
   20.5824   43.0813   -5.3349 H   0  0  0  0  0  0  0  0  0  0  0  0
   16.8475   37.3902   -9.7788 H   0  0  0  0  0  0  0  0  0  0  0  0
   18.5940   37.5733   -9.7419 H   0  0  0  0  0  0  0  0  0  0  0  0
   17.6487   38.5491  -10.8404 H   0  0  0  0  0  0  0  0  0  0  0  0
   17.3096   39.2705   -6.5912 H   0  0  0  0  0  0  0  0  0  0  0  0
   17.2963   37.6761   -7.2616 H   0  0  0  0  0  0  0  0  0  0  0  0
   19.4121   37.7850   -6.2292 H   0  0  0  0  0  0  0  0  0  0  0  0
   19.8176   38.1210   -7.8844 H   0  0  0  0  0  0  0  0  0  0  0  0
   19.4516   40.6601   -7.1613 H   0  0  0  0  0  0  0  0  0  0  0  0
   19.6578   40.0516   -5.5440 H   0  0  0  0  0  0  0  0  0  0  0  0
   21.9032   39.1504   -6.1753 H   0  0  0  0  0  0  0  0  0  0  0  0
   21.6964   39.7436   -7.8020 H   0  0  0  0  0  0  0  0  0  0  0  0
   21.8461   41.4320   -5.2606 H   0  0  0  0  0  0  0  0  0  0  0  0
   23.0969   41.2775   -6.4301 H   0  0  0  0  0  0  0  0  0  0  0  0
   22.2830   45.0413   -9.6886 H   0  0  0  0  0  0  0  0  0  0  0  0
   18.6354   44.8798  -12.0035 H   0  0  0  0  0  0  0  0  0  0  0  0
   19.6669   41.6560   -9.3344 H   0  0  0  0  0  0  0  0  0  0  0  0
   17.5760   41.9485   -9.1399 H   0  0  0  0  0  0  0  0  0  0  0  0
   15.3459   39.2195   -8.8848 H   0  0  0  0  0  0  0  0  0  0  0  0
   15.9952   40.5460   -7.9723 H   0  0  0  0  0  0  0  0  0  0  0  0
   14.5969   43.2524   -8.8489 H   0  0  0  0  0  0  0  0  0  0  0  0
   15.4330   43.6270  -10.2988 H   0  0  0  0  0  0  0  0  0  0  0  0
   12.5522   43.2085  -10.2644 H   0  0  0  0  0  0  0  0  0  0  0  0
   13.9220   43.3545  -12.4407 H   0  0  0  0  0  0  0  0  0  0  0  0
   12.3842   44.1248  -12.2741 H   0  0  0  0  0  0  0  0  0  0  0  0
   16.0834   44.8909  -11.7462 H   0  0  0  0  0  0  0  0  0  0  0  0
   17.1040   46.9724  -12.5444 H   0  0  0  0  0  0  0  0  0  0  0  0
   15.7325   48.7201  -13.6046 H   0  0  0  0  0  0  0  0  0  0  0  0
   12.1961   46.3319  -12.9438 H   0  0  0  0  0  0  0  0  0  0  0  0
   12.0670   48.8149  -13.3307 H   0  0  0  0  0  0  0  0  0  0  0  0
   11.8940   47.2822  -15.2649 H   0  0  0  0  0  0  0  0  0  0  0  0
   13.2469   48.0896  -16.0495 H   0  0  0  0  0  0  0  0  0  0  0  0
   11.7354   48.9522  -15.7859 H   0  0  0  0  0  0  0  0  0  0  0  0
   13.9230   50.4745  -13.1276 H   0  0  0  0  0  0  0  0  0  0  0  0
   12.8602   50.8390  -14.4723 H   0  0  0  0  0  0  0  0  0  0  0  0
   14.4196   50.1107  -14.7818 H   0  0  0  0  0  0  0  0  0  0  0  0
   13.3378   40.5848  -11.2398 H   0  0  0  0  0  0  0  0  0  0  0  0
   22.4593   49.0438  -12.2553 H   0  0  0  0  0  0  0  0  0  0  0  0
   19.9262   48.7615  -13.4535 H   0  0  0  0  0  0  0  0  0  0  0  0
   18.7175   44.2894   -6.0815 H   0  0  0  0  0  0  0  0  0  0  0  0
   18.6890   42.7098   -6.8380 H   0  0  0  0  0  0  0  0  0  0  0  0
   19.1247   44.1376   -7.7653 H   0  0  0  0  0  0  0  0  0  0  0  0
   22.9638   43.8320   -4.8839 H   0  0  0  0  0  0  0  0  0  0  0  0
   24.2707   45.9026   -4.5462 H   0  0  0  0  0  0  0  0  0  0  0  0
   23.5574   48.0277   -5.6269 H   0  0  0  0  0  0  0  0  0  0  0  0
   21.5253   48.0635   -7.0649 H   0  0  0  0  0  0  0  0  0  0  0  0
   20.2182   46.0156   -7.4216 H   0  0  0  0  0  0  0  0  0  0  0  0
  1  2  1  0  0  0  0
  1 53  1  0  0  0  0
  1 54  1  0  0  0  0
  1 55  1  0  0  0  0
  2 49  1  6  0  0  0
  2 21  1  0  0  0  0
  2  3  1  0  0  0  0
  3  4  1  0  0  0  0
  3 56  1  0  0  0  0
  3 57  1  0  0  0  0
  4  5  1  0  0  0  0
  4 58  1  0  0  0  0
  4 59  1  0  0  0  0
  5  6  1  0  0  0  0
  5 60  1  0  0  0  0
  5 61  1  0  0  0  0
  6  7  1  0  0  0  0
  6 62  1  0  0  0  0
  6 63  1  0  0  0  0
  7  8  1  0  0  0  0
  7 64  1  0  0  0  0
  7 65  1  0  0  0  0
  8  9  1  0  0  0  0
  8 41  1  0  0  0  0
  9 10  2  0  0  0  0
  9 11  1  0  0  0  0
 11 16  1  0  0  0  0
 11 12  2  0  0  0  0
 12 13  1  0  0  0  0
 12 66  1  0  0  0  0
 13 14  2  0  0  0  0
 13 36  1  0  0  0  0
 14 15  1  0  0  0  0
 14 67  1  0  0  0  0
 15 16  2  0  0  0  0
 15 17  1  0  0  0  0
 16 68  1  0  0  0  0
 17 18  2  0  0  0  0
 17 19  1  0  0  0  0
 19 20  1  0  0  0  0
 19 69  1  0  0  0  0
 20 50  1  6  0  0  0
 20 21  1  0  0  0  0
 20 22  1  0  0  0  0
 21 70  1  0  0  0  0
 21 71  1  0  0  0  0
 22 51  1  1  0  0  0
 22 23  1  0  0  0  0
 22 35  1  0  0  0  0
 23 24  1  0  0  0  0
 23 72  1  0  0  0  0
 23 73  1  0  0  0  0
 24 25  1  0  0  0  0
 24 74  1  0  0  0  0
 25 26  1  0  0  0  0
 25 75  1  0  0  0  0
 25 76  1  0  0  0  0
 26 31  1  0  0  0  0
 26 27  2  0  0  0  0
 27 28  1  0  0  0  0
 27 77  1  0  0  0  0
 28 29  2  0  0  0  0
 28 78  1  0  0  0  0
 29 30  1  0  0  0  0
 29 79  1  0  0  0  0
 30 31  2  0  0  0  0
 30 32  1  0  0  0  0
 31 80  1  0  0  0  0
 32 33  1  0  0  0  0
 32 34  1  0  0  0  0
 32 81  1  0  0  0  0
 33 82  1  0  0  0  0
 33 83  1  0  0  0  0
 33 84  1  0  0  0  0
 34 85  1  0  0  0  0
 34 86  1  0  0  0  0
 34 87  1  0  0  0  0
 35 88  1  0  0  0  0
 36 40  1  0  0  0  0
 36 37  2  0  0  0  0
 37 38  1  0  0  0  0
 38 39  2  0  0  0  0
 38 89  1  0  0  0  0
 39 40  1  0  0  0  0
 39 90  1  0  0  0  0
 41 52  1  1  0  0  0
 41 42  1  0  0  0  0
 41 43  1  0  0  0  0
 42 91  1  0  0  0  0
 42 92  1  0  0  0  0
 42 93  1  0  0  0  0
 43 48  1  0  0  0  0
 43 44  2  0  0  0  0
 44 45  1  0  0  0  0
 44 94  1  0  0  0  0
 45 46  2  0  0  0  0
 45 95  1  0  0  0  0
 46 47  1  0  0  0  0
 46 96  1  0  0  0  0
 47 48  2  0  0  0  0
 47 97  1  0  0  0  0
 48 98  1  0  0  0  0
M  END
