REMARK energy -3.59506
 OpenBabel09281823033D
Structure written by MMmdl.
 88 90  0  0  1  0  0  0  0  0999 V2000
   21.9355   43.2884   -5.9548 C   0  0  0  0  0  0  0  0  0  0  0  0
   23.2803   43.5493   -6.6538 C   0  0  2  0  0  0  0  0  0  0  0  0
   24.0232   44.7117   -5.9573 C   0  0  0  0  0  0  0  0  0  0  0  0
   25.4642   44.9285   -6.4454 C   0  0  0  0  0  0  0  0  0  0  0  0
   26.2035   46.0254   -5.6581 C   0  0  0  0  0  0  0  0  0  0  0  0
   27.5833   46.3686   -6.2430 C   0  0  0  0  0  0  0  0  0  0  0  0
   28.6484   45.2737   -6.0304 C   0  0  0  0  0  0  0  0  0  0  0  0
   29.9473   45.5247   -6.8232 C   0  0  0  0  0  0  0  0  0  0  0  0
   29.9827   44.8285   -8.1952 C   0  0  0  0  0  0  0  0  0  0  0  0
   28.8972   45.2704   -9.0604 N   0  0  0  0  0  0  0  0  0  0  0  0
   28.2925   44.3477   -9.9228 C   0  0  0  0  0  0  0  0  0  0  0  0
   29.0166   43.2920  -10.5170 C   0  0  0  0  0  0  0  0  0  0  0  0
   28.3820   42.3990  -11.4023 C   0  0  0  0  0  0  0  0  0  0  0  0
   27.0114   42.5601  -11.6935 C   0  0  0  0  0  0  0  0  0  0  0  0
   26.2696   43.5975  -11.0896 C   0  0  0  0  0  0  0  0  0  0  0  0
   26.9209   44.4947  -10.2148 C   0  0  0  0  0  0  0  0  0  0  0  0
   24.8149   43.7760  -11.4227 C   0  0  0  0  0  0  0  0  0  0  0  0
   24.4886   44.1392  -12.5513 O   0  0  0  0  0  0  0  0  0  0  0  0
   23.8897   43.5528  -10.4685 N   0  0  0  0  0  0  0  0  0  0  0  0
   24.0677   43.0364   -9.1069 C   0  0  1  0  0  0  0  0  0  0  0  0
   23.0759   43.7784   -8.1749 C   0  0  0  0  0  0  0  0  0  0  0  0
   23.9201   41.4860   -9.0687 C   0  0  1  0  0  0  0  0  0  0  0  0
   22.6155   40.9020   -9.6634 C   0  0  0  0  0  0  0  0  0  0  0  0
   22.4600   39.4817   -9.2803 N   0  3  0  0  0  0  0  0  0  0  0  0
   21.2400   38.8020   -9.7483 C   0  0  0  0  0  0  0  0  0  0  0  0
   20.1094   38.8097   -8.7292 C   0  0  0  0  0  0  0  0  0  0  0  0
   20.3165   39.1318   -7.3656 C   0  0  0  0  0  0  0  0  0  0  0  0
   19.2442   39.0785   -6.4563 C   0  0  0  0  0  0  0  0  0  0  0  0
   17.9648   38.6894   -6.8945 C   0  0  0  0  0  0  0  0  0  0  0  0
   17.7440   38.3648   -8.2490 C   0  0  0  0  0  0  0  0  0  0  0  0
   18.8203   38.4346   -9.1600 C   0  0  0  0  0  0  0  0  0  0  0  0
   16.3608   37.9290   -8.7136 C   0  0  0  0  0  0  0  0  0  0  0  0
   16.3857   36.4871   -9.2402 C   0  0  0  0  0  0  0  0  0  0  0  0
   15.7769   38.9074   -9.7449 C   0  0  0  0  0  0  0  0  0  0  0  0
   25.0433   40.9500   -9.7393 O   0  0  0  0  0  0  0  0  0  0  0  0
   29.1869   41.2752  -12.0291 C   0  0  0  0  0  0  0  0  0  0  0  0
   30.2262   41.7498  -12.8720 O   0  0  0  0  0  0  0  0  0  0  0  0
   29.7633   42.1932  -14.1372 C   0  0  0  0  0  0  0  0  0  0  0  0
   23.8794   42.6555   -6.4963 H   0  0  0  0  0  0  0  0  0  0  0  0
   25.0687   43.2790   -8.7487 H   0  0  0  0  0  0  0  0  0  0  0  0
   24.0071   41.1506   -8.0378 H   0  0  0  0  0  0  0  0  0  0  0  0
   21.2656   44.1437   -6.0480 H   0  0  0  0  0  0  0  0  0  0  0  0
   22.0747   43.0918   -4.8913 H   0  0  0  0  0  0  0  0  0  0  0  0
   21.4290   42.4203   -6.3794 H   0  0  0  0  0  0  0  0  0  0  0  0
   23.4534   45.6343   -6.0748 H   0  0  0  0  0  0  0  0  0  0  0  0
   24.0566   44.5148   -4.8855 H   0  0  0  0  0  0  0  0  0  0  0  0
   26.0110   43.9875   -6.3757 H   0  0  0  0  0  0  0  0  0  0  0  0
   25.4497   45.2039   -7.4992 H   0  0  0  0  0  0  0  0  0  0  0  0
   25.5962   46.9312   -5.6684 H   0  0  0  0  0  0  0  0  0  0  0  0
   26.3086   45.7477   -4.6094 H   0  0  0  0  0  0  0  0  0  0  0  0
   27.4625   46.5999   -7.2996 H   0  0  0  0  0  0  0  0  0  0  0  0
   27.9423   47.2896   -5.7825 H   0  0  0  0  0  0  0  0  0  0  0  0
   28.8826   45.2287   -4.9664 H   0  0  0  0  0  0  0  0  0  0  0  0
   28.2583   44.2881   -6.2869 H   0  0  0  0  0  0  0  0  0  0  0  0
   30.1292   46.5955   -6.9304 H   0  0  0  0  0  0  0  0  0  0  0  0
   30.7863   45.1445   -6.2393 H   0  0  0  0  0  0  0  0  0  0  0  0
   30.9305   45.0416   -8.6906 H   0  0  0  0  0  0  0  0  0  0  0  0
   29.9447   43.7504   -8.0459 H   0  0  0  0  0  0  0  0  0  0  0  0
   28.3063   45.9955   -8.6817 H   0  0  0  0  0  0  0  0  0  0  0  0
   30.0726   43.1711  -10.3194 H   0  0  0  0  0  0  0  0  0  0  0  0
   26.5211   41.8805  -12.3761 H   0  0  0  0  0  0  0  0  0  0  0  0
   26.3608   45.3066   -9.7723 H   0  0  0  0  0  0  0  0  0  0  0  0
   22.9385   43.7239  -10.7554 H   0  0  0  0  0  0  0  0  0  0  0  0
   22.0576   43.5095   -8.4575 H   0  0  0  0  0  0  0  0  0  0  0  0
   23.1315   44.8499   -8.3740 H   0  0  0  0  0  0  0  0  0  0  0  0
   21.7482   41.4432   -9.2848 H   0  0  0  0  0  0  0  0  0  0  0  0
   22.6098   41.0046  -10.7503 H   0  0  0  0  0  0  0  0  0  0  0  0
   23.2692   38.9804   -9.6418 H   0  0  0  0  0  0  0  0  0  0  0  0
   20.9085   39.2137  -10.7020 H   0  0  0  0  0  0  0  0  0  0  0  0
   21.4954   37.7603   -9.9286 H   0  0  0  0  0  0  0  0  0  0  0  0
   21.2838   39.4200   -6.9832 H   0  0  0  0  0  0  0  0  0  0  0  0
   19.3931   39.3502   -5.4221 H   0  0  0  0  0  0  0  0  0  0  0  0
   17.1505   38.6409   -6.1846 H   0  0  0  0  0  0  0  0  0  0  0  0
   18.6574   38.1773  -10.1970 H   0  0  0  0  0  0  0  0  0  0  0  0
   15.6951   37.9434   -7.8495 H   0  0  0  0  0  0  0  0  0  0  0  0
   16.6565   35.7924   -8.4448 H   0  0  0  0  0  0  0  0  0  0  0  0
   17.1133   36.3736  -10.0400 H   0  0  0  0  0  0  0  0  0  0  0  0
   15.4167   36.1906   -9.6399 H   0  0  0  0  0  0  0  0  0  0  0  0
   15.7167   39.9156   -9.3324 H   0  0  0  0  0  0  0  0  0  0  0  0
   14.7676   38.6136  -10.0326 H   0  0  0  0  0  0  0  0  0  0  0  0
   16.3808   38.9526  -10.6507 H   0  0  0  0  0  0  0  0  0  0  0  0
   25.0816   40.0053   -9.6402 H   0  0  0  0  0  0  0  0  0  0  0  0
   29.6600   40.7111  -11.2254 H   0  0  0  0  0  0  0  0  0  0  0  0
   28.5411   40.5689  -12.5567 H   0  0  0  0  0  0  0  0  0  0  0  0
   30.6128   42.5197  -14.7379 H   0  0  0  0  0  0  0  0  0  0  0  0
   29.0776   43.0353  -14.0390 H   0  0  0  0  0  0  0  0  0  0  0  0
   29.2597   41.3901  -14.6777 H   0  0  0  0  0  0  0  0  0  0  0  0
   22.4891   39.3998   -8.2759 H   0  0  0  0  0  0  0  0  0  0  0  0
  1  2  1  0  0  0  0
  1 42  1  0  0  0  0
  1 43  1  0  0  0  0
  1 44  1  0  0  0  0
  2 39  1  1  0  0  0
  2 21  1  0  0  0  0
  2  3  1  0  0  0  0
  3  4  1  0  0  0  0
  3 45  1  0  0  0  0
  3 46  1  0  0  0  0
  4  5  1  0  0  0  0
  4 47  1  0  0  0  0
  4 48  1  0  0  0  0
  5  6  1  0  0  0  0
  5 49  1  0  0  0  0
  5 50  1  0  0  0  0
  6  7  1  0  0  0  0
  6 51  1  0  0  0  0
  6 52  1  0  0  0  0
  7  8  1  0  0  0  0
  7 53  1  0  0  0  0
  7 54  1  0  0  0  0
  8  9  1  0  0  0  0
  8 55  1  0  0  0  0
  8 56  1  0  0  0  0
  9 10  1  0  0  0  0
  9 57  1  0  0  0  0
  9 58  1  0  0  0  0
 10 11  1  0  0  0  0
 10 59  1  0  0  0  0
 11 16  1  0  0  0  0
 11 12  2  0  0  0  0
 12 13  1  0  0  0  0
 12 60  1  0  0  0  0
 13 14  2  0  0  0  0
 13 36  1  0  0  0  0
 14 15  1  0  0  0  0
 14 61  1  0  0  0  0
 15 16  2  0  0  0  0
 15 17  1  0  0  0  0
 16 62  1  0  0  0  0
 17 18  2  0  0  0  0
 17 19  1  0  0  0  0
 19 20  1  0  0  0  0
 19 63  1  0  0  0  0
 20 40  1  1  0  0  0
 20 21  1  0  0  0  0
 20 22  1  0  0  0  0
 21 64  1  0  0  0  0
 21 65  1  0  0  0  0
 22 41  1  1  0  0  0
 22 23  1  0  0  0  0
 22 35  1  0  0  0  0
 23 24  1  0  0  0  0
 23 66  1  0  0  0  0
 23 67  1  0  0  0  0
 24 25  1  0  0  0  0
 24 68  1  0  0  0  0
 24 88  1  0  0  0  0
 25 26  1  0  0  0  0
 25 69  1  0  0  0  0
 25 70  1  0  0  0  0
 26 31  1  0  0  0  0
 26 27  2  0  0  0  0
 27 28  1  0  0  0  0
 27 71  1  0  0  0  0
 28 29  2  0  0  0  0
 28 72  1  0  0  0  0
 29 30  1  0  0  0  0
 29 73  1  0  0  0  0
 30 31  2  0  0  0  0
 30 32  1  0  0  0  0
 31 74  1  0  0  0  0
 32 33  1  0  0  0  0
 32 34  1  0  0  0  0
 32 75  1  0  0  0  0
 33 76  1  0  0  0  0
 33 77  1  0  0  0  0
 33 78  1  0  0  0  0
 34 79  1  0  0  0  0
 34 80  1  0  0  0  0
 34 81  1  0  0  0  0
 35 82  1  0  0  0  0
 36 37  1  0  0  0  0
 36 83  1  0  0  0  0
 36 84  1  0  0  0  0
 37 38  1  0  0  0  0
 38 85  1  0  0  0  0
 38 86  1  0  0  0  0
 38 87  1  0  0  0  0
M  CHG  1  24   1
M  END
