REMARK energy -4.43729
 OpenBabel09281823033D
Structure written by MMmdl.
 66 67  0  0  1  0  0  0  0  0999 V2000
   15.4983   43.3605   -8.0401 O   0  0  0  0  0  0  0  0  0  0  0  0
   15.9287   42.0793   -8.4463 C   0  0  0  0  0  0  0  0  0  0  0  0
   16.7535   42.1926   -9.7468 C   0  0  2  0  0  0  0  0  0  0  0  0
   15.8473   42.5675  -10.7735 O   0  0  0  0  0  0  0  0  0  0  0  0
   17.4625   40.8793  -10.1824 C   0  0  1  0  0  0  0  0  0  0  0  0
   18.0931   40.9185  -11.5192 N   0  0  0  0  0  0  0  0  0  0  0  0
   19.0870   41.6673  -12.0400 C   0  0  0  0  0  0  0  0  0  0  0  0
   19.6598   41.3473  -13.0792 O   0  0  0  0  0  0  0  0  0  0  0  0
   18.4366   40.3098   -9.1171 C   0  0  0  0  0  0  0  0  0  0  0  0
   19.0663   38.9283   -9.4220 C   0  0  2  0  0  0  0  0  0  0  0  0
   18.0236   37.8976   -9.8901 C   0  0  0  0  0  0  0  0  0  0  0  0
   19.7855   38.3464   -8.1865 C   0  0  0  0  0  0  0  0  0  0  0  0
   20.9743   39.1491   -7.6324 C   0  0  0  0  0  0  0  0  0  0  0  0
   22.2058   39.1153   -8.5458 C   0  0  0  0  0  0  0  0  0  0  0  0
   23.4295   39.8203   -7.9305 C   0  0  0  0  0  0  0  0  0  0  0  0
   23.8568   41.0758   -8.7017 C   0  0  0  0  0  0  0  0  0  0  0  0
   22.9281   42.2759   -8.4845 C   0  0  0  0  0  0  0  0  0  0  0  0
   23.2522   43.4225   -9.4593 C   0  0  0  0  0  0  0  0  0  0  0  0
   22.2716   44.4540   -9.4147 O   0  0  0  0  0  0  0  0  0  0  0  0
   21.0883   44.2721  -10.1000 C   0  0  0  0  0  0  0  0  0  0  0  0
   20.7071   43.0604  -10.7291 C   0  0  0  0  0  0  0  0  0  0  0  0
   19.4705   42.9547  -11.3902 C   0  0  0  0  0  0  0  0  0  0  0  0
   20.2095   45.3731  -10.1633 C   0  0  0  0  0  0  0  0  0  0  0  0
   18.9805   45.2827  -10.8550 C   0  0  0  0  0  0  0  0  0  0  0  0
   18.6408   44.0848  -11.5097 C   0  0  0  0  0  0  0  0  0  0  0  0
   18.0352   46.4444  -10.9180 C   0  0  0  0  0  0  0  0  0  0  0  0
   17.6947   46.8765  -12.0216 O   0  0  0  0  0  0  0  0  0  0  0  0
   17.5668   46.9469   -9.7507 N   0  0  0  0  0  0  0  0  0  0  0  0
   16.6685   48.0984   -9.7539 C   0  0  0  0  0  0  0  0  0  0  0  0
   17.7655   46.3212   -8.4384 C   0  0  0  0  0  0  0  0  0  0  0  0
   17.4900   42.9720   -9.5804 H   0  0  0  0  0  0  0  0  0  0  0  0
   16.6540   40.1562  -10.2860 H   0  0  0  0  0  0  0  0  0  0  0  0
   19.7937   39.0454  -10.2259 H   0  0  0  0  0  0  0  0  0  0  0  0
   15.3456   43.3187   -7.0917 H   0  0  0  0  0  0  0  0  0  0  0  0
   16.5303   41.7051   -7.6212 H   0  0  0  0  0  0  0  0  0  0  0  0
   15.0770   41.4043   -8.5527 H   0  0  0  0  0  0  0  0  0  0  0  0
   15.0108   42.1784  -10.5571 H   0  0  0  0  0  0  0  0  0  0  0  0
   17.8673   40.1166  -12.0904 H   0  0  0  0  0  0  0  0  0  0  0  0
   19.2257   41.0406   -8.9420 H   0  0  0  0  0  0  0  0  0  0  0  0
   17.9157   40.2055   -8.1691 H   0  0  0  0  0  0  0  0  0  0  0  0
   17.2200   37.7852   -9.1600 H   0  0  0  0  0  0  0  0  0  0  0  0
   18.4729   36.9163  -10.0400 H   0  0  0  0  0  0  0  0  0  0  0  0
   17.5804   38.1836  -10.8400 H   0  0  0  0  0  0  0  0  0  0  0  0
   19.0578   38.2093   -7.3847 H   0  0  0  0  0  0  0  0  0  0  0  0
   20.1369   37.3500   -8.4395 H   0  0  0  0  0  0  0  0  0  0  0  0
   20.6843   40.1781   -7.4200 H   0  0  0  0  0  0  0  0  0  0  0  0
   21.2486   38.7184   -6.6693 H   0  0  0  0  0  0  0  0  0  0  0  0
   22.4596   38.0751   -8.7558 H   0  0  0  0  0  0  0  0  0  0  0  0
   21.9649   39.5500   -9.5166 H   0  0  0  0  0  0  0  0  0  0  0  0
   23.2597   40.0619   -6.8807 H   0  0  0  0  0  0  0  0  0  0  0  0
   24.2649   39.1206   -7.9325 H   0  0  0  0  0  0  0  0  0  0  0  0
   24.8600   41.3624   -8.3993 H   0  0  0  0  0  0  0  0  0  0  0  0
   23.9280   40.8319   -9.7628 H   0  0  0  0  0  0  0  0  0  0  0  0
   21.8949   41.9554   -8.5947 H   0  0  0  0  0  0  0  0  0  0  0  0
   23.0156   42.6328   -7.4575 H   0  0  0  0  0  0  0  0  0  0  0  0
   24.2111   43.8632   -9.1833 H   0  0  0  0  0  0  0  0  0  0  0  0
   23.3818   43.0638  -10.4821 H   0  0  0  0  0  0  0  0  0  0  0  0
   21.3428   42.1886  -10.7153 H   0  0  0  0  0  0  0  0  0  0  0  0
   20.4915   46.2976   -9.6808 H   0  0  0  0  0  0  0  0  0  0  0  0
   17.7093   44.0129  -12.0548 H   0  0  0  0  0  0  0  0  0  0  0  0
   16.9583   48.8422  -10.4996 H   0  0  0  0  0  0  0  0  0  0  0  0
   16.6500   48.6040   -8.7867 H   0  0  0  0  0  0  0  0  0  0  0  0
   15.6602   47.7550   -9.9862 H   0  0  0  0  0  0  0  0  0  0  0  0
   17.7288   45.2331   -8.5000 H   0  0  0  0  0  0  0  0  0  0  0  0
   16.9893   46.6114   -7.7286 H   0  0  0  0  0  0  0  0  0  0  0  0
   18.7268   46.6104   -8.0150 H   0  0  0  0  0  0  0  0  0  0  0  0
  1  2  1  0  0  0  0
  1 34  1  0  0  0  0
  2  3  1  0  0  0  0
  2 35  1  0  0  0  0
  2 36  1  0  0  0  0
  3 31  1  1  0  0  0
  3  4  1  0  0  0  0
  3  5  1  0  0  0  0
  4 37  1  0  0  0  0
  5 32  1  6  0  0  0
  5  6  1  0  0  0  0
  5  9  1  0  0  0  0
  6  7  1  0  0  0  0
  6 38  1  0  0  0  0
  7 22  1  0  0  0  0
  7  8  2  0  0  0  0
  9 10  1  0  0  0  0
  9 39  1  0  0  0  0
  9 40  1  0  0  0  0
 10 33  1  6  0  0  0
 10 11  1  0  0  0  0
 10 12  1  0  0  0  0
 11 41  1  0  0  0  0
 11 42  1  0  0  0  0
 11 43  1  0  0  0  0
 12 13  1  0  0  0  0
 12 44  1  0  0  0  0
 12 45  1  0  0  0  0
 13 14  1  0  0  0  0
 13 46  1  0  0  0  0
 13 47  1  0  0  0  0
 14 15  1  0  0  0  0
 14 48  1  0  0  0  0
 14 49  1  0  0  0  0
 15 16  1  0  0  0  0
 15 50  1  0  0  0  0
 15 51  1  0  0  0  0
 16 17  1  0  0  0  0
 16 52  1  0  0  0  0
 16 53  1  0  0  0  0
 17 18  1  0  0  0  0
 17 54  1  0  0  0  0
 17 55  1  0  0  0  0
 18 19  1  0  0  0  0
 18 56  1  0  0  0  0
 18 57  1  0  0  0  0
 19 20  1  0  0  0  0
 20 21  1  0  0  0  0
 20 23  2  0  0  0  0
 21 22  2  0  0  0  0
 21 58  1  0  0  0  0
 22 25  1  0  0  0  0
 23 24  1  0  0  0  0
 23 59  1  0  0  0  0
 24 25  2  0  0  0  0
 24 26  1  0  0  0  0
 25 60  1  0  0  0  0
 26 27  2  0  0  0  0
 26 28  1  0  0  0  0
 28 29  1  0  0  0  0
 28 30  1  0  0  0  0
 29 61  1  0  0  0  0
 29 62  1  0  0  0  0
 29 63  1  0  0  0  0
 30 64  1  0  0  0  0
 30 65  1  0  0  0  0
 30 66  1  0  0  0  0
M  END
