REMARK energy -5.13758
 OpenBabel09281823033D
Structure written by MMmdl.
 80 81  0  0  1  0  0  0  0  0999 V2000
   21.6858   39.0413   -9.2807 C   0  0  0  0  0  0  0  0  0  0  0  0
   20.2202   39.0738   -8.8320 C   0  0  0  0  0  0  0  0  0  0  0  0
   19.4526   37.8174   -9.2677 C   0  0  0  0  0  0  0  0  0  0  0  0
   18.0130   37.8251   -8.8695 C   0  0  0  0  0  0  0  0  0  0  0  0
   17.3870   38.1498   -7.7018 C   0  0  0  0  0  0  0  0  0  0  0  0
   15.9967   38.1801   -8.0417 C   0  0  0  0  0  0  0  0  0  0  0  0
   15.7765   37.7450   -9.2711 N   0  0  0  0  0  0  0  0  0  0  0  0
   17.0097   37.5057   -9.7495 N   0  0  0  0  0  0  0  0  0  0  0  0
   14.8402   38.7337   -7.2542 C   0  0  0  0  0  0  0  0  0  0  0  0
   15.2596   39.9318   -6.5015 N   0  3  0  0  0  0  0  0  0  0  0  0
   15.4455   41.1971   -7.2683 C   0  0  0  0  0  0  0  0  0  0  0  0
   16.5526   41.1992   -8.3669 C   0  0  2  0  0  0  0  0  0  0  0  0
   17.2654   42.5356   -8.6945 C   0  0  2  0  0  0  0  0  0  0  0  0
   18.1208   43.0485   -7.5140 C   0  0  0  0  0  0  0  0  0  0  0  0
   18.9250   44.3503   -7.7493 C   0  0  1  0  0  0  0  0  0  0  0  0
   19.5708   44.8129   -6.4201 C   0  0  0  0  0  0  0  0  0  0  0  0
   20.0242   46.2847   -6.3712 C   0  0  0  0  0  0  0  0  0  0  0  0
   18.8474   47.2743   -6.2484 C   0  0  0  0  0  0  0  0  0  0  0  0
   19.2015   48.7542   -6.4843 C   0  0  0  0  0  0  0  0  0  0  0  0
   19.9266   49.0690   -7.8109 C   0  0  0  0  0  0  0  0  0  0  0  0
   19.2888   48.4724   -9.0774 C   0  0  0  0  0  0  0  0  0  0  0  0
   18.0130   49.0512   -9.3300 O   0  0  0  0  0  0  0  0  0  0  0  0
   17.3389   48.4686  -10.4469 C   0  0  0  0  0  0  0  0  0  0  0  0
   16.6145   47.1662  -10.0434 C   0  0  0  0  0  0  0  0  0  0  0  0
   16.4596   46.9404   -8.8439 O   0  0  0  0  0  0  0  0  0  0  0  0
   16.1121   46.3421  -11.0011 N   0  0  0  0  0  0  0  0  0  0  0  0
   15.2649   45.1837  -10.6103 C   0  0  2  0  0  0  0  0  0  0  0  0
   16.1465   43.9440  -10.4126 C   0  0  0  0  0  0  0  0  0  0  0  0
   16.6416   43.3698  -11.3848 O   0  0  0  0  0  0  0  0  0  0  0  0
   16.3396   43.5719   -9.1355 N   0  0  0  0  0  0  0  0  0  0  0  0
   14.1595   44.8843  -11.6518 C   0  0  0  0  0  0  0  0  0  0  0  0
   16.5149   46.4885  -12.4095 C   0  0  0  0  0  0  0  0  0  0  0  0
   19.9732   44.1861   -8.8656 C   0  0  0  0  0  0  0  0  0  0  0  0
   16.0342   40.7006   -9.5887 O   0  0  0  0  0  0  0  0  0  0  0  0
   17.1543   37.1704  -10.6948 H   0  0  0  0  0  0  0  0  0  0  0  0
   17.3695   40.5644   -8.0457 H   0  0  0  0  0  0  0  0  0  0  0  0
   17.9666   42.3173   -9.5015 H   0  0  0  0  0  0  0  0  0  0  0  0
   18.2245   45.1158   -8.0690 H   0  0  0  0  0  0  0  0  0  0  0  0
   14.7524   45.3752   -9.6667 H   0  0  0  0  0  0  0  0  0  0  0  0
   22.2179   39.9311   -8.9458 H   0  0  0  0  0  0  0  0  0  0  0  0
   21.7688   38.9935  -10.3664 H   0  0  0  0  0  0  0  0  0  0  0  0
   22.2050   38.1747   -8.8688 H   0  0  0  0  0  0  0  0  0  0  0  0
   19.7357   39.9598   -9.2431 H   0  0  0  0  0  0  0  0  0  0  0  0
   20.1810   39.1747   -7.7473 H   0  0  0  0  0  0  0  0  0  0  0  0
   19.9387   36.9503   -8.8404 H   0  0  0  0  0  0  0  0  0  0  0  0
   19.5279   37.7110  -10.3505 H   0  0  0  0  0  0  0  0  0  0  0  0
   17.8580   38.4448   -6.7754 H   0  0  0  0  0  0  0  0  0  0  0  0
   14.4547   37.9908   -6.5612 H   0  0  0  0  0  0  0  0  0  0  0  0
   14.0037   38.9953   -7.9045 H   0  0  0  0  0  0  0  0  0  0  0  0
   16.1157   39.6968   -6.0215 H   0  0  0  0  0  0  0  0  0  0  0  0
   15.7616   41.8705   -6.4879 H   0  0  0  0  0  0  0  0  0  0  0  0
   14.4903   41.5646   -7.6509 H   0  0  0  0  0  0  0  0  0  0  0  0
   17.4529   43.2191   -6.6734 H   0  0  0  0  0  0  0  0  0  0  0  0
   18.8058   42.2613   -7.1999 H   0  0  0  0  0  0  0  0  0  0  0  0
   18.8621   44.6646   -5.6110 H   0  0  0  0  0  0  0  0  0  0  0  0
   20.4195   44.1637   -6.1934 H   0  0  0  0  0  0  0  0  0  0  0  0
   20.6355   46.4992   -7.2461 H   0  0  0  0  0  0  0  0  0  0  0  0
   20.6855   46.4269   -5.5166 H   0  0  0  0  0  0  0  0  0  0  0  0
   18.0596   47.0007   -6.9413 H   0  0  0  0  0  0  0  0  0  0  0  0
   18.4017   47.1715   -5.2595 H   0  0  0  0  0  0  0  0  0  0  0  0
   19.8115   49.1127   -5.6548 H   0  0  0  0  0  0  0  0  0  0  0  0
   18.2789   49.3344   -6.4478 H   0  0  0  0  0  0  0  0  0  0  0  0
   20.0033   50.1508   -7.9268 H   0  0  0  0  0  0  0  0  0  0  0  0
   20.9548   48.7129   -7.7430 H   0  0  0  0  0  0  0  0  0  0  0  0
   19.2195   47.3876   -8.9975 H   0  0  0  0  0  0  0  0  0  0  0  0
   19.9417   48.6752   -9.9282 H   0  0  0  0  0  0  0  0  0  0  0  0
   18.0372   48.3268  -11.2708 H   0  0  0  0  0  0  0  0  0  0  0  0
   16.5807   49.1731  -10.7869 H   0  0  0  0  0  0  0  0  0  0  0  0
   15.8976   44.1159   -8.4109 H   0  0  0  0  0  0  0  0  0  0  0  0
   13.4327   44.1835  -11.2409 H   0  0  0  0  0  0  0  0  0  0  0  0
   14.5327   44.4362  -12.5721 H   0  0  0  0  0  0  0  0  0  0  0  0
   13.6171   45.7885  -11.9232 H   0  0  0  0  0  0  0  0  0  0  0  0
   16.2579   45.6310  -13.0249 H   0  0  0  0  0  0  0  0  0  0  0  0
   17.5992   46.5714  -12.4995 H   0  0  0  0  0  0  0  0  0  0  0  0
   16.0600   47.3766  -12.8521 H   0  0  0  0  0  0  0  0  0  0  0  0
   20.5336   45.1052   -9.0276 H   0  0  0  0  0  0  0  0  0  0  0  0
   19.5073   43.9384   -9.8189 H   0  0  0  0  0  0  0  0  0  0  0  0
   20.6892   43.3966   -8.6303 H   0  0  0  0  0  0  0  0  0  0  0  0
   15.9565   39.7538   -9.5387 H   0  0  0  0  0  0  0  0  0  0  0  0
   14.5578   40.1131   -5.7860 H   0  0  0  0  0  0  0  0  0  0  0  0
  1  2  1  0  0  0  0
  1 40  1  0  0  0  0
  1 41  1  0  0  0  0
  1 42  1  0  0  0  0
  2  3  1  0  0  0  0
  2 43  1  0  0  0  0
  2 44  1  0  0  0  0
  3  4  1  0  0  0  0
  3 45  1  0  0  0  0
  3 46  1  0  0  0  0
  4  8  1  0  0  0  0
  4  5  2  0  0  0  0
  5  6  1  0  0  0  0
  5 47  1  0  0  0  0
  6  7  2  0  0  0  0
  6  9  1  0  0  0  0
  7  8  1  0  0  0  0
  8 35  1  0  0  0  0
  9 10  1  0  0  0  0
  9 48  1  0  0  0  0
  9 49  1  0  0  0  0
 10 11  1  0  0  0  0
 10 50  1  0  0  0  0
 10 80  1  0  0  0  0
 11 12  1  0  0  0  0
 11 51  1  0  0  0  0
 11 52  1  0  0  0  0
 12 36  1  1  0  0  0
 12 13  1  0  0  0  0
 12 34  1  0  0  0  0
 13 37  1  6  0  0  0
 13 30  1  0  0  0  0
 13 14  1  0  0  0  0
 14 15  1  0  0  0  0
 14 53  1  0  0  0  0
 14 54  1  0  0  0  0
 15 38  1  6  0  0  0
 15 16  1  0  0  0  0
 15 33  1  0  0  0  0
 16 17  1  0  0  0  0
 16 55  1  0  0  0  0
 16 56  1  0  0  0  0
 17 18  1  0  0  0  0
 17 57  1  0  0  0  0
 17 58  1  0  0  0  0
 18 19  1  0  0  0  0
 18 59  1  0  0  0  0
 18 60  1  0  0  0  0
 19 20  1  0  0  0  0
 19 61  1  0  0  0  0
 19 62  1  0  0  0  0
 20 21  1  0  0  0  0
 20 63  1  0  0  0  0
 20 64  1  0  0  0  0
 21 22  1  0  0  0  0
 21 65  1  0  0  0  0
 21 66  1  0  0  0  0
 22 23  1  0  0  0  0
 23 24  1  0  0  0  0
 23 67  1  0  0  0  0
 23 68  1  0  0  0  0
 24 25  2  0  0  0  0
 24 26  1  0  0  0  0
 26 27  1  0  0  0  0
 26 32  1  0  0  0  0
 27 39  1  1  0  0  0
 27 28  1  0  0  0  0
 27 31  1  0  0  0  0
 28 29  2  0  0  0  0
 28 30  1  0  0  0  0
 30 69  1  0  0  0  0
 31 70  1  0  0  0  0
 31 71  1  0  0  0  0
 31 72  1  0  0  0  0
 32 73  1  0  0  0  0
 32 74  1  0  0  0  0
 32 75  1  0  0  0  0
 33 76  1  0  0  0  0
 33 77  1  0  0  0  0
 33 78  1  0  0  0  0
 34 79  1  0  0  0  0
M  CHG  1  10   1
M  END
