REMARK energy -1.03017
 OpenBabel09281823033D
Structure written by MMmdl.
 80 82  0  0  1  0  0  0  0  0999 V2000
   21.7822   41.8958  -11.9381 C   0  0  0  0  0  0  0  0  0  0  0  0
   22.0390   42.1098  -10.4297 C   0  0  1  0  0  0  0  0  0  0  0  0
   21.1988   41.1968   -9.5117 C   0  0  0  0  0  0  0  0  0  0  0  0
   19.9893   41.1004   -9.7243 O   0  0  0  0  0  0  0  0  0  0  0  0
   21.7969   40.5763   -8.4807 N   0  0  0  0  0  0  0  0  0  0  0  0
   21.1661   39.8155   -7.3884 C   0  0  1  0  0  0  0  0  0  0  0  0
   20.4591   40.7362   -6.3641 C   0  0  0  0  0  0  0  0  0  0  0  0
   21.3519   41.8405   -5.8235 C   0  0  0  0  0  0  0  0  0  0  0  0
   22.0168   41.6714   -4.5916 C   0  0  0  0  0  0  0  0  0  0  0  0
   22.8555   42.6901   -4.1051 C   0  0  0  0  0  0  0  0  0  0  0  0
   23.0369   43.8680   -4.8515 C   0  0  0  0  0  0  0  0  0  0  0  0
   22.4091   44.0373   -6.1079 C   0  0  0  0  0  0  0  0  0  0  0  0
   21.5368   43.0301   -6.5593 C   0  0  0  0  0  0  0  0  0  0  0  0
   22.6018   45.1208   -6.9402 O   0  0  0  0  0  0  0  0  0  0  0  0
   23.5898   46.0764   -6.5828 C   0  0  0  0  0  0  0  0  0  0  0  0
   23.9133   46.9824   -7.7839 C   0  0  0  0  0  0  0  0  0  0  0  0
   24.9210   46.3733   -8.7832 C   0  0  0  0  0  0  0  0  0  0  0  0
   24.3309   45.9820  -10.1552 C   0  0  0  0  0  0  0  0  0  0  0  0
   23.4402   44.7163  -10.1771 C   0  0  0  0  0  0  0  0  0  0  0  0
   24.1841   43.3740  -10.0223 C   0  0  0  0  0  0  0  0  0  0  0  0
   25.3975   43.3875   -9.8108 O   0  0  0  0  0  0  0  0  0  0  0  0
   23.4941   42.2089  -10.1443 N   0  0  0  0  0  0  0  0  0  0  0  0
   24.2589   40.9530  -10.1490 C   0  0  0  0  0  0  0  0  0  0  0  0
   20.3507   38.5520   -7.8156 C   0  0  1  0  0  0  0  0  0  0  0  0
   18.8122   38.6913   -7.6662 C   0  0  0  0  0  0  0  0  0  0  0  0
   18.0590   37.5396   -8.1844 N   0  0  0  0  0  0  0  0  0  0  0  0
   17.5570   37.6825   -9.5580 C   0  0  0  0  0  0  0  0  0  0  0  0
   16.4609   38.7218   -9.6653 C   0  0  0  0  0  0  0  0  0  0  0  0
   15.1297   38.3726   -9.3791 C   0  0  0  0  0  0  0  0  0  0  0  0
   14.1281   39.3608   -9.3821 C   0  0  0  0  0  0  0  0  0  0  0  0
   14.4621   40.7059   -9.6429 C   0  0  0  0  0  0  0  0  0  0  0  0
   15.7888   41.0643   -9.9391 C   0  0  0  0  0  0  0  0  0  0  0  0
   16.7727   40.0561   -9.9968 C   0  0  0  0  0  0  0  0  0  0  0  0
   16.2051   42.5232  -10.0844 C   0  0  0  0  0  0  0  0  0  0  0  0
   16.4256   43.1461   -8.7006 C   0  0  0  0  0  0  0  0  0  0  0  0
   15.2217   43.3651  -10.9216 C   0  0  0  0  0  0  0  0  0  0  0  0
   20.7025   38.1516   -9.1279 O   0  0  0  0  0  0  0  0  0  0  0  0
   21.5738   43.0658  -10.2022 H   0  0  0  0  0  0  0  0  0  0  0  0
   22.0314   39.4140   -6.8582 H   0  0  0  0  0  0  0  0  0  0  0  0
   20.6509   37.7504   -7.1462 H   0  0  0  0  0  0  0  0  0  0  0  0
   20.7268   42.0328  -12.1762 H   0  0  0  0  0  0  0  0  0  0  0  0
   22.0594   40.8890  -12.2486 H   0  0  0  0  0  0  0  0  0  0  0  0
   22.3598   42.5996  -12.5422 H   0  0  0  0  0  0  0  0  0  0  0  0
   22.7980   40.6984   -8.4040 H   0  0  0  0  0  0  0  0  0  0  0  0
   19.5798   41.2008   -6.8136 H   0  0  0  0  0  0  0  0  0  0  0  0
   20.0924   40.1465   -5.5223 H   0  0  0  0  0  0  0  0  0  0  0  0
   21.8827   40.7673   -4.0139 H   0  0  0  0  0  0  0  0  0  0  0  0
   23.3581   42.5736   -3.1547 H   0  0  0  0  0  0  0  0  0  0  0  0
   23.6736   44.6320   -4.4396 H   0  0  0  0  0  0  0  0  0  0  0  0
   21.0288   43.1599   -7.5050 H   0  0  0  0  0  0  0  0  0  0  0  0
   23.2030   46.6771   -5.7579 H   0  0  0  0  0  0  0  0  0  0  0  0
   24.5086   45.6019   -6.2367 H   0  0  0  0  0  0  0  0  0  0  0  0
   22.9981   47.2994   -8.2823 H   0  0  0  0  0  0  0  0  0  0  0  0
   24.3666   47.8941   -7.3916 H   0  0  0  0  0  0  0  0  0  0  0  0
   25.6926   47.1203   -8.9721 H   0  0  0  0  0  0  0  0  0  0  0  0
   25.4587   45.5351   -8.3376 H   0  0  0  0  0  0  0  0  0  0  0  0
   23.7503   46.8210  -10.5412 H   0  0  0  0  0  0  0  0  0  0  0  0
   25.1547   45.8585  -10.8619 H   0  0  0  0  0  0  0  0  0  0  0  0
   22.6706   44.8040   -9.4134 H   0  0  0  0  0  0  0  0  0  0  0  0
   22.9241   44.6859  -11.1369 H   0  0  0  0  0  0  0  0  0  0  0  0
   24.6327   40.7097   -9.1530 H   0  0  0  0  0  0  0  0  0  0  0  0
   25.1079   41.0027  -10.8370 H   0  0  0  0  0  0  0  0  0  0  0  0
   23.6263   40.1483  -10.4946 H   0  0  0  0  0  0  0  0  0  0  0  0
   18.6006   38.7818   -6.6000 H   0  0  0  0  0  0  0  0  0  0  0  0
   18.4640   39.6215   -8.1054 H   0  0  0  0  0  0  0  0  0  0  0  0
   17.2699   37.3579   -7.5626 H   0  0  0  0  0  0  0  0  0  0  0  0
   18.3617   37.9212  -10.2524 H   0  0  0  0  0  0  0  0  0  0  0  0
   17.1496   36.7278   -9.8910 H   0  0  0  0  0  0  0  0  0  0  0  0
   14.8762   37.3502   -9.1599 H   0  0  0  0  0  0  0  0  0  0  0  0
   13.0998   39.0989   -9.1674 H   0  0  0  0  0  0  0  0  0  0  0  0
   13.6918   41.4581   -9.5819 H   0  0  0  0  0  0  0  0  0  0  0  0
   17.7879   40.3171  -10.2311 H   0  0  0  0  0  0  0  0  0  0  0  0
   17.1600   42.5384  -10.6134 H   0  0  0  0  0  0  0  0  0  0  0  0
   17.1686   42.5861   -8.1323 H   0  0  0  0  0  0  0  0  0  0  0  0
   15.5027   43.1470   -8.1217 H   0  0  0  0  0  0  0  0  0  0  0  0
   16.7794   44.1742   -8.7744 H   0  0  0  0  0  0  0  0  0  0  0  0
   15.0785   42.9349  -11.9124 H   0  0  0  0  0  0  0  0  0  0  0  0
   15.5979   44.3778  -11.0536 H   0  0  0  0  0  0  0  0  0  0  0  0
   14.2423   43.4441  -10.4423 H   0  0  0  0  0  0  0  0  0  0  0  0
   20.4315   38.8486   -9.7099 H   0  0  0  0  0  0  0  0  0  0  0  0
  1  2  1  0  0  0  0
  1 41  1  0  0  0  0
  1 42  1  0  0  0  0
  1 43  1  0  0  0  0
  2 38  1  1  0  0  0
  2 22  1  0  0  0  0
  2  3  1  0  0  0  0
  3  4  2  0  0  0  0
  3  5  1  0  0  0  0
  5  6  1  0  0  0  0
  5 44  1  0  0  0  0
  6 39  1  1  0  0  0
  6  7  1  0  0  0  0
  6 24  1  0  0  0  0
  7  8  1  0  0  0  0
  7 45  1  0  0  0  0
  7 46  1  0  0  0  0
  8 13  1  0  0  0  0
  8  9  2  0  0  0  0
  9 10  1  0  0  0  0
  9 47  1  0  0  0  0
 10 11  2  0  0  0  0
 10 48  1  0  0  0  0
 11 12  1  0  0  0  0
 11 49  1  0  0  0  0
 12 13  2  0  0  0  0
 12 14  1  0  0  0  0
 13 50  1  0  0  0  0
 14 15  1  0  0  0  0
 15 16  1  0  0  0  0
 15 51  1  0  0  0  0
 15 52  1  0  0  0  0
 16 17  1  0  0  0  0
 16 53  1  0  0  0  0
 16 54  1  0  0  0  0
 17 18  1  0  0  0  0
 17 55  1  0  0  0  0
 17 56  1  0  0  0  0
 18 19  1  0  0  0  0
 18 57  1  0  0  0  0
 18 58  1  0  0  0  0
 19 20  1  0  0  0  0
 19 59  1  0  0  0  0
 19 60  1  0  0  0  0
 20 21  2  0  0  0  0
 20 22  1  0  0  0  0
 22 23  1  0  0  0  0
 23 61  1  0  0  0  0
 23 62  1  0  0  0  0
 23 63  1  0  0  0  0
 24 40  1  1  0  0  0
 24 25  1  0  0  0  0
 24 37  1  0  0  0  0
 25 26  1  0  0  0  0
 25 64  1  0  0  0  0
 25 65  1  0  0  0  0
 26 27  1  0  0  0  0
 26 66  1  0  0  0  0
 27 28  1  0  0  0  0
 27 67  1  0  0  0  0
 27 68  1  0  0  0  0
 28 33  1  0  0  0  0
 28 29  2  0  0  0  0
 29 30  1  0  0  0  0
 29 69  1  0  0  0  0
 30 31  2  0  0  0  0
 30 70  1  0  0  0  0
 31 32  1  0  0  0  0
 31 71  1  0  0  0  0
 32 33  2  0  0  0  0
 32 34  1  0  0  0  0
 33 72  1  0  0  0  0
 34 35  1  0  0  0  0
 34 36  1  0  0  0  0
 34 73  1  0  0  0  0
 35 74  1  0  0  0  0
 35 75  1  0  0  0  0
 35 76  1  0  0  0  0
 36 77  1  0  0  0  0
 36 78  1  0  0  0  0
 36 79  1  0  0  0  0
 37 80  1  0  0  0  0
M  END
