REMARK energy -3.87362
 OpenBabel09281823033D
Structure written by MMmdl.
 86 87  0  0  1  0  0  0  0  0999 V2000
   25.8781   43.5073  -10.2003 C   0  0  0  0  0  0  0  0  0  0  0  0
   26.8032   44.5552  -10.3667 C   0  0  0  0  0  0  0  0  0  0  0  0
   28.0609   44.3022  -10.9475 C   0  0  0  0  0  0  0  0  0  0  0  0
   28.4055   42.9981  -11.3679 C   0  0  0  0  0  0  0  0  0  0  0  0
   29.7729   42.7371  -11.9970 C   0  0  0  0  0  0  0  0  0  0  0  0
   30.6671   41.8665  -11.0964 C   0  0  0  0  0  0  0  0  0  0  0  0
   29.6547   42.1590  -13.4184 C   0  0  0  0  0  0  0  0  0  0  0  0
   27.4701   41.9506  -11.1971 C   0  0  0  0  0  0  0  0  0  0  0  0
   26.2084   42.2000  -10.6146 C   0  0  0  0  0  0  0  0  0  0  0  0
   25.2124   41.0683  -10.4350 C   0  0  0  0  0  0  0  0  0  0  0  0
   23.8509   41.4994  -10.8127 N   0  3  0  0  0  0  0  0  0  0  0  0
   22.7691   40.8829  -10.0101 C   0  0  0  0  0  0  0  0  0  0  0  0
   22.9055   41.1832   -8.4935 C   0  0  0  0  0  0  0  0  0  0  0  0
   23.9004   42.1791   -8.3294 O   0  0  0  0  0  0  0  0  0  0  0  0
   23.2577   39.9565   -7.8762 O   0  0  0  0  0  0  0  0  0  0  0  0
   21.6061   41.6631   -7.8533 C   0  0  1  0  0  0  0  0  0  0  0  0
   20.8654   42.4810   -8.8174 N   0  0  0  0  0  0  0  0  0  0  0  0
   19.8799   43.3418   -8.5303 C   0  0  0  0  0  0  0  0  0  0  0  0
   19.5227   43.5720   -7.3867 O   0  0  0  0  0  0  0  0  0  0  0  0
   19.2381   44.0719   -9.7306 C   0  0  2  0  0  0  0  0  0  0  0  0
   19.7092   45.5228   -9.6905 C   0  0  0  0  0  0  0  0  0  0  0  0
   20.7881   40.4458   -7.3700 C   0  0  0  0  0  0  0  0  0  0  0  0
   20.4467   39.4212   -8.4746 C   0  0  2  0  0  0  0  0  0  0  0  0
   19.6164   40.0824   -9.5710 C   0  0  0  0  0  0  0  0  0  0  0  0
   19.7288   38.1585   -7.9508 C   0  0  0  0  0  0  0  0  0  0  0  0
   18.2690   38.3701   -7.4942 C   0  0  0  0  0  0  0  0  0  0  0  0
   17.2843   38.6163   -8.6555 C   0  0  0  0  0  0  0  0  0  0  0  0
   15.8060   38.7157   -8.2207 C   0  0  0  0  0  0  0  0  0  0  0  0
   15.4506   39.9202   -7.3180 C   0  0  0  0  0  0  0  0  0  0  0  0
   15.8219   41.3084   -7.8806 C   0  0  0  0  0  0  0  0  0  0  0  0
   15.1271   41.6628   -9.2157 C   0  0  0  0  0  0  0  0  0  0  0  0
   15.5464   43.0340   -9.8025 C   0  0  0  0  0  0  0  0  0  0  0  0
   17.0204   43.1036  -10.2167 C   0  0  0  0  0  0  0  0  0  0  0  0
   17.4551   42.3105  -11.0355 O   0  0  0  0  0  0  0  0  0  0  0  0
   17.7645   44.0454   -9.6193 N   0  0  0  0  0  0  0  0  0  0  0  0
   17.1073   44.9083   -8.6586 C   0  0  0  0  0  0  0  0  0  0  0  0
   21.9065   42.2687   -6.9982 H   0  0  0  0  0  0  0  0  0  0  0  0
   19.5978   43.6687  -10.6773 H   0  0  0  0  0  0  0  0  0  0  0  0
   21.3733   39.1118   -8.9580 H   0  0  0  0  0  0  0  0  0  0  0  0
   24.9157   43.7125   -9.7543 H   0  0  0  0  0  0  0  0  0  0  0  0
   26.5478   45.5552  -10.0485 H   0  0  0  0  0  0  0  0  0  0  0  0
   28.7575   45.1193  -11.0668 H   0  0  0  0  0  0  0  0  0  0  0  0
   30.2770   43.6995  -12.0955 H   0  0  0  0  0  0  0  0  0  0  0  0
   30.7930   42.3201  -10.1127 H   0  0  0  0  0  0  0  0  0  0  0  0
   31.6614   41.7489  -11.5285 H   0  0  0  0  0  0  0  0  0  0  0  0
   30.2541   40.8678  -10.9518 H   0  0  0  0  0  0  0  0  0  0  0  0
   29.0711   42.8177  -14.0624 H   0  0  0  0  0  0  0  0  0  0  0  0
   29.1764   41.1792  -13.4237 H   0  0  0  0  0  0  0  0  0  0  0  0
   30.6372   42.0447  -13.8774 H   0  0  0  0  0  0  0  0  0  0  0  0
   27.7179   40.9480  -11.5141 H   0  0  0  0  0  0  0  0  0  0  0  0
   25.2201   40.7354   -9.3961 H   0  0  0  0  0  0  0  0  0  0  0  0
   25.5136   40.2151  -11.0448 H   0  0  0  0  0  0  0  0  0  0  0  0
   23.7005   41.2672  -11.7840 H   0  0  0  0  0  0  0  0  0  0  0  0
   22.7795   39.8049  -10.1797 H   0  0  0  0  0  0  0  0  0  0  0  0
   21.8217   41.2584  -10.3967 H   0  0  0  0  0  0  0  0  0  0  0  0
   24.7101   41.8575   -8.6952 H   0  0  0  0  0  0  0  0  0  0  0  0
   23.7875   39.4580   -8.4793 H   0  0  0  0  0  0  0  0  0  0  0  0
   21.1086   42.3709   -9.7915 H   0  0  0  0  0  0  0  0  0  0  0  0
   20.7914   45.5901   -9.8104 H   0  0  0  0  0  0  0  0  0  0  0  0
   19.4537   46.0127   -8.7505 H   0  0  0  0  0  0  0  0  0  0  0  0
   19.2612   46.1053  -10.4963 H   0  0  0  0  0  0  0  0  0  0  0  0
   21.3586   39.9446   -6.5881 H   0  0  0  0  0  0  0  0  0  0  0  0
   19.8775   40.7957   -6.8838 H   0  0  0  0  0  0  0  0  0  0  0  0
   19.3814   39.3868  -10.3760 H   0  0  0  0  0  0  0  0  0  0  0  0
   20.1437   40.9174  -10.0309 H   0  0  0  0  0  0  0  0  0  0  0  0
   18.6710   40.4634   -9.1830 H   0  0  0  0  0  0  0  0  0  0  0  0
   19.7484   37.3902   -8.7237 H   0  0  0  0  0  0  0  0  0  0  0  0
   20.3046   37.7432   -7.1238 H   0  0  0  0  0  0  0  0  0  0  0  0
   18.2171   39.1861   -6.7734 H   0  0  0  0  0  0  0  0  0  0  0  0
   17.9474   37.4811   -6.9515 H   0  0  0  0  0  0  0  0  0  0  0  0
   17.5664   39.5122   -9.2086 H   0  0  0  0  0  0  0  0  0  0  0  0
   17.3746   37.7977   -9.3695 H   0  0  0  0  0  0  0  0  0  0  0  0
   15.5225   37.7961   -7.7089 H   0  0  0  0  0  0  0  0  0  0  0  0
   15.1804   38.7425   -9.1129 H   0  0  0  0  0  0  0  0  0  0  0  0
   14.3819   39.8967   -7.1052 H   0  0  0  0  0  0  0  0  0  0  0  0
   15.9360   39.7946   -6.3502 H   0  0  0  0  0  0  0  0  0  0  0  0
   16.9049   41.3681   -7.9888 H   0  0  0  0  0  0  0  0  0  0  0  0
   15.5675   42.0655   -7.1389 H   0  0  0  0  0  0  0  0  0  0  0  0
   15.3150   40.8869   -9.9579 H   0  0  0  0  0  0  0  0  0  0  0  0
   14.0479   41.6594   -9.0626 H   0  0  0  0  0  0  0  0  0  0  0  0
   15.3056   43.8269   -9.0944 H   0  0  0  0  0  0  0  0  0  0  0  0
   14.9548   43.2520  -10.6916 H   0  0  0  0  0  0  0  0  0  0  0  0
   17.7130   45.7591   -8.3537 H   0  0  0  0  0  0  0  0  0  0  0  0
   16.8391   44.3594   -7.7550 H   0  0  0  0  0  0  0  0  0  0  0  0
   16.2060   45.3544   -9.0808 H   0  0  0  0  0  0  0  0  0  0  0  0
   23.7945   42.5024  -10.7082 H   0  0  0  0  0  0  0  0  0  0  0  0
  1  9  1  0  0  0  0
  1  2  2  0  0  0  0
  1 40  1  0  0  0  0
  2  3  1  0  0  0  0
  2 41  1  0  0  0  0
  3  4  2  0  0  0  0
  3 42  1  0  0  0  0
  4  5  1  0  0  0  0
  4  8  1  0  0  0  0
  5  6  1  0  0  0  0
  5  7  1  0  0  0  0
  5 43  1  0  0  0  0
  6 44  1  0  0  0  0
  6 45  1  0  0  0  0
  6 46  1  0  0  0  0
  7 47  1  0  0  0  0
  7 48  1  0  0  0  0
  7 49  1  0  0  0  0
  8  9  2  0  0  0  0
  8 50  1  0  0  0  0
  9 10  1  0  0  0  0
 10 11  1  0  0  0  0
 10 51  1  0  0  0  0
 10 52  1  0  0  0  0
 11 12  1  0  0  0  0
 11 53  1  0  0  0  0
 11 86  1  0  0  0  0
 12 13  1  0  0  0  0
 12 54  1  0  0  0  0
 12 55  1  0  0  0  0
 13 14  1  0  0  0  0
 13 15  1  0  0  0  0
 13 16  1  0  0  0  0
 14 56  1  0  0  0  0
 15 57  1  0  0  0  0
 16 37  1  1  0  0  0
 16 17  1  0  0  0  0
 16 22  1  0  0  0  0
 17 18  1  0  0  0  0
 17 58  1  0  0  0  0
 18 19  2  0  0  0  0
 18 20  1  0  0  0  0
 20 38  1  6  0  0  0
 20 35  1  0  0  0  0
 20 21  1  0  0  0  0
 21 59  1  0  0  0  0
 21 60  1  0  0  0  0
 21 61  1  0  0  0  0
 22 23  1  0  0  0  0
 22 62  1  0  0  0  0
 22 63  1  0  0  0  0
 23 39  1  6  0  0  0
 23 24  1  0  0  0  0
 23 25  1  0  0  0  0
 24 64  1  0  0  0  0
 24 65  1  0  0  0  0
 24 66  1  0  0  0  0
 25 26  1  0  0  0  0
 25 67  1  0  0  0  0
 25 68  1  0  0  0  0
 26 27  1  0  0  0  0
 26 69  1  0  0  0  0
 26 70  1  0  0  0  0
 27 28  1  0  0  0  0
 27 71  1  0  0  0  0
 27 72  1  0  0  0  0
 28 29  1  0  0  0  0
 28 73  1  0  0  0  0
 28 74  1  0  0  0  0
 29 30  1  0  0  0  0
 29 75  1  0  0  0  0
 29 76  1  0  0  0  0
 30 31  1  0  0  0  0
 30 77  1  0  0  0  0
 30 78  1  0  0  0  0
 31 32  1  0  0  0  0
 31 79  1  0  0  0  0
 31 80  1  0  0  0  0
 32 33  1  0  0  0  0
 32 81  1  0  0  0  0
 32 82  1  0  0  0  0
 33 34  2  0  0  0  0
 33 35  1  0  0  0  0
 35 36  1  0  0  0  0
 36 83  1  0  0  0  0
 36 84  1  0  0  0  0
 36 85  1  0  0  0  0
M  CHG  1  11   1
M  END
