REMARK energy -4.06879
 OpenBabel09281823033D
Structure written by MMmdl.
 83 85  0  0  1  0  0  0  0  0999 V2000
   16.9515   51.8343   -9.5245 C   0  0  0  0  0  0  0  0  0  0  0  0
   17.9804   50.9266  -10.2173 C   0  0  0  0  0  0  0  0  0  0  0  0
   17.7672   49.5068   -9.8849 N   0  0  0  0  0  0  0  0  0  0  0  0
   16.9331   48.7904  -10.8718 C   0  0  0  0  0  0  0  0  0  0  0  0
   17.6219   47.6495  -11.6505 C   0  0  0  0  0  0  0  0  0  0  0  0
   16.7515   47.0915  -12.7979 C   0  0  0  0  0  0  0  0  0  0  0  0
   15.4197   46.4171  -12.3881 C   0  0  0  0  0  0  0  0  0  0  0  0
   15.5436   44.9324  -11.9899 C   0  0  0  0  0  0  0  0  0  0  0  0
   14.2275   44.2818  -11.4709 C   0  0  2  0  0  0  0  0  0  0  0  0
   14.4467   42.8202  -10.9814 C   0  0  0  0  0  0  0  0  0  0  0  0
   14.6954   42.6151   -9.4618 C   0  0  2  0  0  0  0  0  0  0  0  0
   15.8002   43.4729   -9.0349 N   0  0  0  0  0  0  0  0  0  0  0  0
   15.6980   44.6573   -8.4087 C   0  0  0  0  0  0  0  0  0  0  0  0
   14.6306   45.1534   -8.0434 O   0  0  0  0  0  0  0  0  0  0  0  0
   16.9887   45.4126   -8.2849 C   0  0  0  0  0  0  0  0  0  0  0  0
   18.2077   44.7476   -8.0274 C   0  0  0  0  0  0  0  0  0  0  0  0
   19.4122   45.4709   -7.9450 C   0  0  0  0  0  0  0  0  0  0  0  0
   19.4106   46.8601   -8.1594 C   0  0  0  0  0  0  0  0  0  0  0  0
   18.2059   47.5387   -8.4417 C   0  0  0  0  0  0  0  0  0  0  0  0
   16.9937   46.8139   -8.4401 C   0  0  0  0  0  0  0  0  0  0  0  0
   18.2524   49.0161   -8.7087 C   0  0  0  0  0  0  0  0  0  0  0  0
   18.8090   49.7322   -7.8742 O   0  0  0  0  0  0  0  0  0  0  0  0
   15.0336   41.1341   -9.1238 C   0  0  1  0  0  0  0  0  0  0  0  0
   15.2345   40.8352   -7.6051 C   0  0  0  0  0  0  0  0  0  0  0  0
   16.5157   40.1490   -7.3212 N   0  3  0  0  0  0  0  0  0  0  0  0
   17.6963   40.9790   -7.6514 C   0  0  0  0  0  0  0  0  0  0  0  0
   19.0040   40.2252   -7.6491 C   0  0  0  0  0  0  0  0  0  0  0  0
   19.2183   39.1516   -8.5393 C   0  0  0  0  0  0  0  0  0  0  0  0
   20.4876   38.5493   -8.6168 C   0  0  0  0  0  0  0  0  0  0  0  0
   21.5444   39.0219   -7.8160 C   0  0  0  0  0  0  0  0  0  0  0  0
   21.3366   40.1000   -6.9285 C   0  0  0  0  0  0  0  0  0  0  0  0
   20.0598   40.6853   -6.8401 C   0  0  0  0  0  0  0  0  0  0  0  0
   22.4870   40.6566   -6.1072 C   0  0  0  0  0  0  0  0  0  0  0  0
   22.3046   40.3893   -4.6057 C   0  0  0  0  0  0  0  0  0  0  0  0
   22.7317   42.1531   -6.3960 C   0  0  0  0  0  0  0  0  0  0  0  0
   14.0600   40.2562   -9.6371 O   0  0  0  0  0  0  0  0  0  0  0  0
   13.1002   44.3207  -12.5232 C   0  0  0  0  0  0  0  0  0  0  0  0
   13.8656   44.8699  -10.6305 H   0  0  0  0  0  0  0  0  0  0  0  0
   13.7871   42.8893   -8.9220 H   0  0  0  0  0  0  0  0  0  0  0  0
   15.9183   40.8582   -9.6972 H   0  0  0  0  0  0  0  0  0  0  0  0
   17.1253   52.8799   -9.7841 H   0  0  0  0  0  0  0  0  0  0  0  0
   17.0125   51.7482   -8.4407 H   0  0  0  0  0  0  0  0  0  0  0  0
   15.9338   51.5857   -9.8287 H   0  0  0  0  0  0  0  0  0  0  0  0
   17.9495   51.0857  -11.2954 H   0  0  0  0  0  0  0  0  0  0  0  0
   18.9888   51.2317   -9.9272 H   0  0  0  0  0  0  0  0  0  0  0  0
   16.0593   48.4154  -10.3576 H   0  0  0  0  0  0  0  0  0  0  0  0
   16.5243   49.4936  -11.5966 H   0  0  0  0  0  0  0  0  0  0  0  0
   18.5496   48.0296  -12.0774 H   0  0  0  0  0  0  0  0  0  0  0  0
   17.9144   46.8312  -10.9985 H   0  0  0  0  0  0  0  0  0  0  0  0
   16.5271   47.9135  -13.4778 H   0  0  0  0  0  0  0  0  0  0  0  0
   17.3449   46.3887  -13.3827 H   0  0  0  0  0  0  0  0  0  0  0  0
   14.9315   46.9719  -11.5928 H   0  0  0  0  0  0  0  0  0  0  0  0
   14.7470   46.4912  -13.2419 H   0  0  0  0  0  0  0  0  0  0  0  0
   15.9211   44.3652  -12.8397 H   0  0  0  0  0  0  0  0  0  0  0  0
   16.3172   44.8567  -11.2282 H   0  0  0  0  0  0  0  0  0  0  0  0
   13.5677   42.2277  -11.2396 H   0  0  0  0  0  0  0  0  0  0  0  0
   15.2617   42.3695  -11.5449 H   0  0  0  0  0  0  0  0  0  0  0  0
   16.7244   43.2071   -9.3412 H   0  0  0  0  0  0  0  0  0  0  0  0
   18.2424   43.6823   -7.8884 H   0  0  0  0  0  0  0  0  0  0  0  0
   20.3388   44.9541   -7.7402 H   0  0  0  0  0  0  0  0  0  0  0  0
   20.3459   47.4010   -8.1252 H   0  0  0  0  0  0  0  0  0  0  0  0
   16.0592   47.3247   -8.5939 H   0  0  0  0  0  0  0  0  0  0  0  0
   15.2029   41.7485   -7.0118 H   0  0  0  0  0  0  0  0  0  0  0  0
   14.4314   40.2077   -7.2126 H   0  0  0  0  0  0  0  0  0  0  0  0
   16.5513   39.9316   -6.3339 H   0  0  0  0  0  0  0  0  0  0  0  0
   17.6331   41.4095   -8.6461 H   0  0  0  0  0  0  0  0  0  0  0  0
   17.7335   41.8311   -6.9776 H   0  0  0  0  0  0  0  0  0  0  0  0
   18.4249   38.8021   -9.1829 H   0  0  0  0  0  0  0  0  0  0  0  0
   20.6586   37.7321   -9.3017 H   0  0  0  0  0  0  0  0  0  0  0  0
   22.5170   38.5607   -7.9043 H   0  0  0  0  0  0  0  0  0  0  0  0
   19.9006   41.5187   -6.1719 H   0  0  0  0  0  0  0  0  0  0  0  0
   23.3653   40.1087   -6.4320 H   0  0  0  0  0  0  0  0  0  0  0  0
   22.1928   39.3236   -4.4091 H   0  0  0  0  0  0  0  0  0  0  0  0
   21.4220   40.8938   -4.2101 H   0  0  0  0  0  0  0  0  0  0  0  0
   23.1669   40.7389   -4.0370 H   0  0  0  0  0  0  0  0  0  0  0  0
   22.9047   42.3203   -7.4591 H   0  0  0  0  0  0  0  0  0  0  0  0
   23.6010   42.5428   -5.8604 H   0  0  0  0  0  0  0  0  0  0  0  0
   21.8801   42.7654   -6.0999 H   0  0  0  0  0  0  0  0  0  0  0  0
   13.2406   40.3785   -9.1611 H   0  0  0  0  0  0  0  0  0  0  0  0
   13.3554   43.7504  -13.4157 H   0  0  0  0  0  0  0  0  0  0  0  0
   12.8598   45.3375  -12.8317 H   0  0  0  0  0  0  0  0  0  0  0  0
   12.1807   43.8951  -12.1230 H   0  0  0  0  0  0  0  0  0  0  0  0
   16.5440   39.2800   -7.8347 H   0  0  0  0  0  0  0  0  0  0  0  0
  1  2  1  0  0  0  0
  1 41  1  0  0  0  0
  1 42  1  0  0  0  0
  1 43  1  0  0  0  0
  2  3  1  0  0  0  0
  2 44  1  0  0  0  0
  2 45  1  0  0  0  0
  3 21  1  0  0  0  0
  3  4  1  0  0  0  0
  4  5  1  0  0  0  0
  4 46  1  0  0  0  0
  4 47  1  0  0  0  0
  5  6  1  0  0  0  0
  5 48  1  0  0  0  0
  5 49  1  0  0  0  0
  6  7  1  0  0  0  0
  6 50  1  0  0  0  0
  6 51  1  0  0  0  0
  7  8  1  0  0  0  0
  7 52  1  0  0  0  0
  7 53  1  0  0  0  0
  8  9  1  0  0  0  0
  8 54  1  0  0  0  0
  8 55  1  0  0  0  0
  9 38  1  1  0  0  0
  9 10  1  0  0  0  0
  9 37  1  0  0  0  0
 10 11  1  0  0  0  0
 10 56  1  0  0  0  0
 10 57  1  0  0  0  0
 11 39  1  1  0  0  0
 11 12  1  0  0  0  0
 11 23  1  0  0  0  0
 12 13  1  0  0  0  0
 12 58  1  0  0  0  0
 13 14  2  0  0  0  0
 13 15  1  0  0  0  0
 15 20  1  0  0  0  0
 15 16  2  0  0  0  0
 16 17  1  0  0  0  0
 16 59  1  0  0  0  0
 17 18  2  0  0  0  0
 17 60  1  0  0  0  0
 18 19  1  0  0  0  0
 18 61  1  0  0  0  0
 19 20  2  0  0  0  0
 19 21  1  0  0  0  0
 20 62  1  0  0  0  0
 21 22  2  0  0  0  0
 23 40  1  6  0  0  0
 23 24  1  0  0  0  0
 23 36  1  0  0  0  0
 24 25  1  0  0  0  0
 24 63  1  0  0  0  0
 24 64  1  0  0  0  0
 25 26  1  0  0  0  0
 25 65  1  0  0  0  0
 25 83  1  0  0  0  0
 26 27  1  0  0  0  0
 26 66  1  0  0  0  0
 26 67  1  0  0  0  0
 27 32  1  0  0  0  0
 27 28  2  0  0  0  0
 28 29  1  0  0  0  0
 28 68  1  0  0  0  0
 29 30  2  0  0  0  0
 29 69  1  0  0  0  0
 30 31  1  0  0  0  0
 30 70  1  0  0  0  0
 31 32  2  0  0  0  0
 31 33  1  0  0  0  0
 32 71  1  0  0  0  0
 33 34  1  0  0  0  0
 33 35  1  0  0  0  0
 33 72  1  0  0  0  0
 34 73  1  0  0  0  0
 34 74  1  0  0  0  0
 34 75  1  0  0  0  0
 35 76  1  0  0  0  0
 35 77  1  0  0  0  0
 35 78  1  0  0  0  0
 36 79  1  0  0  0  0
 37 80  1  0  0  0  0
 37 81  1  0  0  0  0
 37 82  1  0  0  0  0
M  CHG  1  25   1
M  END
