REMARK energy -1.33117
 OpenBabel09281823033D
Structure written by MMmdl.
 78 80  0  0  1  0  0  0  0  0999 V2000
   19.3739   41.9503   -9.4728 C   0  0  0  0  0  0  0  0  0  0  0  0
   19.6392   42.2052  -10.9688 C   0  0  2  0  0  0  0  0  0  0  0  0
   18.6102   41.4723  -11.8626 C   0  0  0  0  0  0  0  0  0  0  0  0
   17.1540   41.9327  -11.6760 C   0  0  0  0  0  0  0  0  0  0  0  0
   17.0164   43.2806  -12.1064 O   0  0  0  0  0  0  0  0  0  0  0  0
   15.8268   43.8988  -11.6368 C   0  0  0  0  0  0  0  0  0  0  0  0
   15.8005   45.3681  -12.0916 C   0  0  0  0  0  0  0  0  0  0  0  0
   16.6809   46.3148  -11.2559 C   0  0  0  0  0  0  0  0  0  0  0  0
   18.1722   45.9521  -11.2858 C   0  0  0  0  0  0  0  0  0  0  0  0
   18.9867   46.9304  -10.5859 N   0  0  0  0  0  0  0  0  0  0  0  0
   20.3608   46.7244  -10.4146 C   0  0  0  0  0  0  0  0  0  0  0  0
   21.0878   45.7366  -11.1176 C   0  0  0  0  0  0  0  0  0  0  0  0
   22.4776   45.6319  -10.8971 C   0  0  0  0  0  0  0  0  0  0  0  0
   23.0806   46.5255   -9.9879 C   0  0  0  0  0  0  0  0  0  0  0  0
   22.2715   47.4654   -9.3250 C   0  0  0  0  0  0  0  0  0  0  0  0
   20.9435   47.5658   -9.5344 N   0  0  0  0  0  0  0  0  0  0  0  0
   23.0038   48.5560   -8.2031 Cl  0  0  0  0  0  0  0  0  0  0  0  0
   23.3213   44.6638  -11.6721 C   0  0  0  0  0  0  0  0  0  0  0  0
   24.2350   45.0854  -12.3770 O   0  0  0  0  0  0  0  0  0  0  0  0
   23.0598   43.3477  -11.5987 N   0  0  0  0  0  0  0  0  0  0  0  0
   22.2217   42.6068  -10.6475 C   0  0  1  0  0  0  0  0  0  0  0  0
   21.0859   41.8738  -11.4179 C   0  0  0  0  0  0  0  0  0  0  0  0
   23.1509   41.7186   -9.7536 C   0  0  1  0  0  0  0  0  0  0  0  0
   22.5208   40.6009   -8.8954 C   0  0  0  0  0  0  0  0  0  0  0  0
   22.2026   39.3983   -9.6972 N   0  3  0  0  0  0  0  0  0  0  0  0
   21.7187   38.2195   -8.9590 C   0  0  0  0  0  0  0  0  0  0  0  0
   20.3848   38.4502   -8.2788 C   0  0  0  0  0  0  0  0  0  0  0  0
   20.3688   38.9013   -6.9452 C   0  0  0  0  0  0  0  0  0  0  0  0
   19.1492   39.0151   -6.2624 C   0  0  0  0  0  0  0  0  0  0  0  0
   17.9419   38.6902   -6.8969 C   0  0  0  0  0  0  0  0  0  0  0  0
   17.9428   38.2449   -8.2320 C   0  0  0  0  0  0  0  0  0  0  0  0
   19.1680   38.1404   -8.9298 C   0  0  0  0  0  0  0  0  0  0  0  0
   16.6224   37.8551   -8.8777 C   0  0  0  0  0  0  0  0  0  0  0  0
   16.6177   36.3837   -9.3036 C   0  0  0  0  0  0  0  0  0  0  0  0
   16.2526   38.8039  -10.0258 C   0  0  0  0  0  0  0  0  0  0  0  0
   24.2696   41.1828  -10.4396 O   0  0  0  0  0  0  0  0  0  0  0  0
   19.5085   43.2682  -11.1394 H   0  0  0  0  0  0  0  0  0  0  0  0
   21.7525   43.3218   -9.9735 H   0  0  0  0  0  0  0  0  0  0  0  0
   23.6002   42.4119   -9.0410 H   0  0  0  0  0  0  0  0  0  0  0  0
   19.4347   40.8910   -9.2319 H   0  0  0  0  0  0  0  0  0  0  0  0
   18.3825   42.2876   -9.1727 H   0  0  0  0  0  0  0  0  0  0  0  0
   20.0650   42.4916   -8.8309 H   0  0  0  0  0  0  0  0  0  0  0  0
   18.8744   41.6080  -12.9114 H   0  0  0  0  0  0  0  0  0  0  0  0
   18.6703   40.3982  -11.6769 H   0  0  0  0  0  0  0  0  0  0  0  0
   16.4910   41.2931  -12.2569 H   0  0  0  0  0  0  0  0  0  0  0  0
   16.8449   41.8233  -10.6380 H   0  0  0  0  0  0  0  0  0  0  0  0
   14.9611   43.3695  -12.0366 H   0  0  0  0  0  0  0  0  0  0  0  0
   15.7617   43.8441  -10.5491 H   0  0  0  0  0  0  0  0  0  0  0  0
   16.0832   45.4308  -13.1428 H   0  0  0  0  0  0  0  0  0  0  0  0
   14.7733   45.7263  -12.0360 H   0  0  0  0  0  0  0  0  0  0  0  0
   16.5483   47.3320  -11.6313 H   0  0  0  0  0  0  0  0  0  0  0  0
   16.3306   46.3245  -10.2229 H   0  0  0  0  0  0  0  0  0  0  0  0
   18.3129   44.9890  -10.7980 H   0  0  0  0  0  0  0  0  0  0  0  0
   18.5149   45.8644  -12.3194 H   0  0  0  0  0  0  0  0  0  0  0  0
   18.5369   47.6379  -10.0225 H   0  0  0  0  0  0  0  0  0  0  0  0
   20.6121   45.0914  -11.8419 H   0  0  0  0  0  0  0  0  0  0  0  0
   24.1458   46.4955   -9.8080 H   0  0  0  0  0  0  0  0  0  0  0  0
   23.6533   42.7775  -12.1841 H   0  0  0  0  0  0  0  0  0  0  0  0
   21.2352   40.8029  -11.4601 H   0  0  0  0  0  0  0  0  0  0  0  0
   21.1556   42.1502  -12.4651 H   0  0  0  0  0  0  0  0  0  0  0  0
   23.2395   40.3051   -8.1306 H   0  0  0  0  0  0  0  0  0  0  0  0
   21.6508   40.9705   -8.3616 H   0  0  0  0  0  0  0  0  0  0  0  0
   21.5274   39.6387  -10.4096 H   0  0  0  0  0  0  0  0  0  0  0  0
   21.6434   37.3630   -9.6332 H   0  0  0  0  0  0  0  0  0  0  0  0
   22.4598   37.9572   -8.2109 H   0  0  0  0  0  0  0  0  0  0  0  0
   21.2886   39.1289   -6.4295 H   0  0  0  0  0  0  0  0  0  0  0  0
   19.1367   39.3510   -5.2385 H   0  0  0  0  0  0  0  0  0  0  0  0
   17.0165   38.7691   -6.3433 H   0  0  0  0  0  0  0  0  0  0  0  0
   19.1771   37.7807   -9.9493 H   0  0  0  0  0  0  0  0  0  0  0  0
   15.8414   37.9574   -8.1216 H   0  0  0  0  0  0  0  0  0  0  0  0
   16.7957   35.7379   -8.4412 H   0  0  0  0  0  0  0  0  0  0  0  0
   17.3945   36.1808  -10.0397 H   0  0  0  0  0  0  0  0  0  0  0  0
   15.6606   36.1058   -9.7440 H   0  0  0  0  0  0  0  0  0  0  0  0
   16.1682   39.8240   -9.6538 H   0  0  0  0  0  0  0  0  0  0  0  0
   15.2894   38.5353  -10.4608 H   0  0  0  0  0  0  0  0  0  0  0  0
   17.0029   38.7908  -10.8138 H   0  0  0  0  0  0  0  0  0  0  0  0
   24.0570   40.9567  -11.3402 H   0  0  0  0  0  0  0  0  0  0  0  0
   23.0769   39.1258  -10.1333 H   0  0  0  0  0  0  0  0  0  0  0  0
  1  2  1  0  0  0  0
  1 40  1  0  0  0  0
  1 41  1  0  0  0  0
  1 42  1  0  0  0  0
  2 37  1  6  0  0  0
  2 22  1  0  0  0  0
  2  3  1  0  0  0  0
  3  4  1  0  0  0  0
  3 43  1  0  0  0  0
  3 44  1  0  0  0  0
  4  5  1  0  0  0  0
  4 45  1  0  0  0  0
  4 46  1  0  0  0  0
  5  6  1  0  0  0  0
  6  7  1  0  0  0  0
  6 47  1  0  0  0  0
  6 48  1  0  0  0  0
  7  8  1  0  0  0  0
  7 49  1  0  0  0  0
  7 50  1  0  0  0  0
  8  9  1  0  0  0  0
  8 51  1  0  0  0  0
  8 52  1  0  0  0  0
  9 10  1  0  0  0  0
  9 53  1  0  0  0  0
  9 54  1  0  0  0  0
 10 11  1  0  0  0  0
 10 55  1  0  0  0  0
 11 16  1  0  0  0  0
 11 12  2  0  0  0  0
 12 13  1  0  0  0  0
 12 56  1  0  0  0  0
 13 14  2  0  0  0  0
 13 18  1  0  0  0  0
 14 15  1  0  0  0  0
 14 57  1  0  0  0  0
 15 16  2  0  0  0  0
 15 17  1  0  0  0  0
 18 19  2  0  0  0  0
 18 20  1  0  0  0  0
 20 21  1  0  0  0  0
 20 58  1  0  0  0  0
 21 38  1  1  0  0  0
 21 22  1  0  0  0  0
 21 23  1  0  0  0  0
 22 59  1  0  0  0  0
 22 60  1  0  0  0  0
 23 39  1  1  0  0  0
 23 24  1  0  0  0  0
 23 36  1  0  0  0  0
 24 25  1  0  0  0  0
 24 61  1  0  0  0  0
 24 62  1  0  0  0  0
 25 26  1  0  0  0  0
 25 63  1  0  0  0  0
 25 78  1  0  0  0  0
 26 27  1  0  0  0  0
 26 64  1  0  0  0  0
 26 65  1  0  0  0  0
 27 32  1  0  0  0  0
 27 28  2  0  0  0  0
 28 29  1  0  0  0  0
 28 66  1  0  0  0  0
 29 30  2  0  0  0  0
 29 67  1  0  0  0  0
 30 31  1  0  0  0  0
 30 68  1  0  0  0  0
 31 32  2  0  0  0  0
 31 33  1  0  0  0  0
 32 69  1  0  0  0  0
 33 34  1  0  0  0  0
 33 35  1  0  0  0  0
 33 70  1  0  0  0  0
 34 71  1  0  0  0  0
 34 72  1  0  0  0  0
 34 73  1  0  0  0  0
 35 74  1  0  0  0  0
 35 75  1  0  0  0  0
 35 76  1  0  0  0  0
 36 77  1  0  0  0  0
M  CHG  1  25   1
M  END
