REMARK energy -2.52021
 OpenBabel09281823033D
Structure written by MMmdl.
 89 91  0  0  1  0  0  0  0  0999 V2000
   21.3504   44.8350   -5.1765 C   0  0  0  0  0  0  0  0  0  0  0  0
   22.5980   44.0962   -4.7008 C   0  0  2  0  0  0  0  0  0  0  0  0
   23.7565   44.3151   -5.6986 C   0  0  0  0  0  0  0  0  0  0  0  0
   23.7385   45.7040   -6.3650 C   0  0  0  0  0  0  0  0  0  0  0  0
   23.9221   46.8862   -5.3914 C   0  0  0  0  0  0  0  0  0  0  0  0
   23.8104   48.2749   -6.0600 C   0  0  0  0  0  0  0  0  0  0  0  0
   22.4622   48.5762   -6.7542 C   0  0  0  0  0  0  0  0  0  0  0  0
   21.2407   48.5243   -5.8130 C   0  0  0  0  0  0  0  0  0  0  0  0
   19.8921   48.8231   -6.5054 O   0  0  0  0  0  0  0  0  0  0  0  0
   19.4110   47.7605   -7.5326 C   0  0  0  0  0  0  0  0  0  0  0  0
   19.1072   46.3625   -6.9724 C   0  0  0  0  0  0  0  0  0  0  0  0
   18.8509   46.2090   -5.7896 O   0  0  0  0  0  0  0  0  0  0  0  0
   19.1190   45.3601   -7.8642 N   0  0  0  0  0  0  0  0  0  0  0  0
   18.9401   43.9445   -7.4720 C   0  0  2  0  0  0  0  0  0  0  0  0
   20.3041   43.2591   -7.2387 C   0  0  0  0  0  0  0  0  0  0  0  0
   21.2140   43.3759   -8.0429 O   0  0  0  0  0  0  0  0  0  0  0  0
   20.4073   42.5386   -6.1084 N   0  0  0  0  0  0  0  0  0  0  0  0
   21.6166   41.8449   -5.6483 C   0  0  1  0  0  0  0  0  0  0  0  0
   22.2409   42.6130   -4.4456 C   0  0  0  0  0  0  0  0  0  0  0  0
   21.3094   40.3391   -5.3741 C   0  0  1  0  0  0  0  0  0  0  0  0
   20.8557   39.5377   -6.6141 C   0  0  0  0  0  0  0  0  0  0  0  0
   19.4298   39.7250   -6.8932 N   0  0  0  0  0  0  0  0  0  0  0  0
   19.0009   39.3910   -8.2601 C   0  0  0  0  0  0  0  0  0  0  0  0
   19.7130   38.2578   -8.9593 C   0  0  0  0  0  0  0  0  0  0  0  0
   19.9630   39.6845   -9.3863 C   0  0  0  0  0  0  0  0  0  0  0  0
   17.5150   39.5681   -8.5382 C   0  0  0  0  0  0  0  0  0  0  0  0
   16.5988   38.5710   -8.1440 C   0  0  0  0  0  0  0  0  0  0  0  0
   15.2259   38.7261   -8.4013 C   0  0  0  0  0  0  0  0  0  0  0  0
   14.7566   39.8785   -9.0576 C   0  0  0  0  0  0  0  0  0  0  0  0
   15.6481   40.8985   -9.4723 C   0  0  0  0  0  0  0  0  0  0  0  0
   17.0309   40.7196   -9.2014 C   0  0  0  0  0  0  0  0  0  0  0  0
   15.0951   42.1504  -10.1946 C   0  0  0  0  0  0  0  0  0  0  0  0
   14.5051   43.1350   -9.1583 C   0  0  0  0  0  0  0  0  0  0  0  0
   16.2328   42.8507  -10.9736 C   0  0  0  0  0  0  0  0  0  0  0  0
   13.9728   41.8266  -11.2122 C   0  0  0  0  0  0  0  0  0  0  0  0
   22.4599   39.6904   -4.8656 O   0  0  0  0  0  0  0  0  0  0  0  0
   18.2462   43.2036   -8.6114 C   0  0  0  0  0  0  0  0  0  0  0  0
   19.4367   45.6869   -9.2396 C   0  0  0  0  0  0  0  0  0  0  0  0
   22.8592   44.5672   -3.7531 H   0  0  0  0  0  0  0  0  0  0  0  0
   18.2884   43.8316   -6.6056 H   0  0  0  0  0  0  0  0  0  0  0  0
   22.3340   41.8845   -6.4675 H   0  0  0  0  0  0  0  0  0  0  0  0
   20.5318   40.2461   -4.6147 H   0  0  0  0  0  0  0  0  0  0  0  0
   21.5506   45.8927   -5.3464 H   0  0  0  0  0  0  0  0  0  0  0  0
   20.5452   44.7849   -4.4443 H   0  0  0  0  0  0  0  0  0  0  0  0
   20.9711   44.4204   -6.1112 H   0  0  0  0  0  0  0  0  0  0  0  0
   24.7124   44.1401   -5.2049 H   0  0  0  0  0  0  0  0  0  0  0  0
   23.7000   43.5753   -6.4971 H   0  0  0  0  0  0  0  0  0  0  0  0
   22.7950   45.8036   -6.9016 H   0  0  0  0  0  0  0  0  0  0  0  0
   24.5167   45.7452   -7.1271 H   0  0  0  0  0  0  0  0  0  0  0  0
   23.1992   46.8198   -4.5783 H   0  0  0  0  0  0  0  0  0  0  0  0
   24.8983   46.8020   -4.9138 H   0  0  0  0  0  0  0  0  0  0  0  0
   24.6128   48.3812   -6.7900 H   0  0  0  0  0  0  0  0  0  0  0  0
   24.0003   49.0417   -5.3090 H   0  0  0  0  0  0  0  0  0  0  0  0
   22.5180   49.5669   -7.2053 H   0  0  0  0  0  0  0  0  0  0  0  0
   22.3234   47.8903   -7.5899 H   0  0  0  0  0  0  0  0  0  0  0  0
   21.3888   49.2466   -5.0101 H   0  0  0  0  0  0  0  0  0  0  0  0
   21.1831   47.5524   -5.3229 H   0  0  0  0  0  0  0  0  0  0  0  0
   20.1382   47.6785   -8.3404 H   0  0  0  0  0  0  0  0  0  0  0  0
   18.4916   48.1138   -7.9994 H   0  0  0  0  0  0  0  0  0  0  0  0
   19.5918   42.5040   -5.5135 H   0  0  0  0  0  0  0  0  0  0  0  0
   21.5458   42.5617   -3.6076 H   0  0  0  0  0  0  0  0  0  0  0  0
   23.1309   42.0813   -4.1090 H   0  0  0  0  0  0  0  0  0  0  0  0
   21.0482   38.4787   -6.4382 H   0  0  0  0  0  0  0  0  0  0  0  0
   21.4548   39.8121   -7.4818 H   0  0  0  0  0  0  0  0  0  0  0  0
   19.1359   40.6661   -6.6522 H   0  0  0  0  0  0  0  0  0  0  0  0
   20.5070   37.7477   -8.4139 H   0  0  0  0  0  0  0  0  0  0  0  0
   19.1250   37.6270   -9.6259 H   0  0  0  0  0  0  0  0  0  0  0  0
   19.5421   40.0075  -10.3385 H   0  0  0  0  0  0  0  0  0  0  0  0
   20.9241   40.1282   -9.1265 H   0  0  0  0  0  0  0  0  0  0  0  0
   16.9464   37.6806   -7.6404 H   0  0  0  0  0  0  0  0  0  0  0  0
   14.5300   37.9589   -8.0949 H   0  0  0  0  0  0  0  0  0  0  0  0
   13.6957   39.9642   -9.2390 H   0  0  0  0  0  0  0  0  0  0  0  0
   17.7571   41.4598   -9.4978 H   0  0  0  0  0  0  0  0  0  0  0  0
   13.7055   42.6701   -8.5798 H   0  0  0  0  0  0  0  0  0  0  0  0
   14.0833   44.0179   -9.6404 H   0  0  0  0  0  0  0  0  0  0  0  0
   15.2523   43.4936   -8.4502 H   0  0  0  0  0  0  0  0  0  0  0  0
   16.6823   42.1803  -11.7074 H   0  0  0  0  0  0  0  0  0  0  0  0
   17.0323   43.2009  -10.3207 H   0  0  0  0  0  0  0  0  0  0  0  0
   15.8677   43.7243  -11.5155 H   0  0  0  0  0  0  0  0  0  0  0  0
   14.3191   41.1625  -12.0055 H   0  0  0  0  0  0  0  0  0  0  0  0
   13.6079   42.7304  -11.7022 H   0  0  0  0  0  0  0  0  0  0  0  0
   13.1086   41.3631  -10.7343 H   0  0  0  0  0  0  0  0  0  0  0  0
   23.1485   39.7523   -5.5098 H   0  0  0  0  0  0  0  0  0  0  0  0
   18.0663   42.1593   -8.3526 H   0  0  0  0  0  0  0  0  0  0  0  0
   18.8354   43.2175   -9.5289 H   0  0  0  0  0  0  0  0  0  0  0  0
   17.2766   43.6482   -8.8384 H   0  0  0  0  0  0  0  0  0  0  0  0
   19.2670   44.8637   -9.9310 H   0  0  0  0  0  0  0  0  0  0  0  0
   20.4809   45.9845   -9.3424 H   0  0  0  0  0  0  0  0  0  0  0  0
   18.8028   46.4942   -9.6086 H   0  0  0  0  0  0  0  0  0  0  0  0
  1  2  1  0  0  0  0
  1 43  1  0  0  0  0
  1 44  1  0  0  0  0
  1 45  1  0  0  0  0
  2 39  1  1  0  0  0
  2 19  1  0  0  0  0
  2  3  1  0  0  0  0
  3  4  1  0  0  0  0
  3 46  1  0  0  0  0
  3 47  1  0  0  0  0
  4  5  1  0  0  0  0
  4 48  1  0  0  0  0
  4 49  1  0  0  0  0
  5  6  1  0  0  0  0
  5 50  1  0  0  0  0
  5 51  1  0  0  0  0
  6  7  1  0  0  0  0
  6 52  1  0  0  0  0
  6 53  1  0  0  0  0
  7  8  1  0  0  0  0
  7 54  1  0  0  0  0
  7 55  1  0  0  0  0
  8  9  1  0  0  0  0
  8 56  1  0  0  0  0
  8 57  1  0  0  0  0
  9 10  1  0  0  0  0
 10 11  1  0  0  0  0
 10 58  1  0  0  0  0
 10 59  1  0  0  0  0
 11 12  2  0  0  0  0
 11 13  1  0  0  0  0
 13 14  1  0  0  0  0
 13 38  1  0  0  0  0
 14 40  1  1  0  0  0
 14 15  1  0  0  0  0
 14 37  1  0  0  0  0
 15 16  2  0  0  0  0
 15 17  1  0  0  0  0
 17 18  1  0  0  0  0
 17 60  1  0  0  0  0
 18 41  1  6  0  0  0
 18 19  1  0  0  0  0
 18 20  1  0  0  0  0
 19 61  1  0  0  0  0
 19 62  1  0  0  0  0
 20 42  1  1  0  0  0
 20 21  1  0  0  0  0
 20 36  1  0  0  0  0
 21 22  1  0  0  0  0
 21 63  1  0  0  0  0
 21 64  1  0  0  0  0
 22 23  1  0  0  0  0
 22 65  1  0  0  0  0
 23 25  1  0  0  0  0
 23 24  1  0  0  0  0
 23 26  1  0  0  0  0
 24 25  1  0  0  0  0
 24 66  1  0  0  0  0
 24 67  1  0  0  0  0
 25 68  1  0  0  0  0
 25 69  1  0  0  0  0
 26 31  1  0  0  0  0
 26 27  2  0  0  0  0
 27 28  1  0  0  0  0
 27 70  1  0  0  0  0
 28 29  2  0  0  0  0
 28 71  1  0  0  0  0
 29 30  1  0  0  0  0
 29 72  1  0  0  0  0
 30 31  2  0  0  0  0
 30 32  1  0  0  0  0
 31 73  1  0  0  0  0
 32 33  1  0  0  0  0
 32 34  1  0  0  0  0
 32 35  1  0  0  0  0
 33 74  1  0  0  0  0
 33 75  1  0  0  0  0
 33 76  1  0  0  0  0
 34 77  1  0  0  0  0
 34 78  1  0  0  0  0
 34 79  1  0  0  0  0
 35 80  1  0  0  0  0
 35 81  1  0  0  0  0
 35 82  1  0  0  0  0
 36 83  1  0  0  0  0
 37 84  1  0  0  0  0
 37 85  1  0  0  0  0
 37 86  1  0  0  0  0
 38 87  1  0  0  0  0
 38 88  1  0  0  0  0
 38 89  1  0  0  0  0
M  END
