REMARK energy -2.81713
 OpenBabel09281823033D
Structure written by MMmdl.
 86 87  0  0  1  0  0  0  0  0999 V2000
   25.8786   43.9564  -10.8352 C   0  0  0  0  0  0  0  0  0  0  0  0
   26.8785   44.9238  -11.0494 C   0  0  0  0  0  0  0  0  0  0  0  0
   28.1735   44.5282  -11.4364 C   0  0  0  0  0  0  0  0  0  0  0  0
   28.4808   43.1605  -11.6133 C   0  0  0  0  0  0  0  0  0  0  0  0
   29.8893   42.7447  -12.0339 C   0  0  0  0  0  0  0  0  0  0  0  0
   30.8235   43.9561  -12.2030 C   0  0  0  0  0  0  0  0  0  0  0  0
   30.4868   41.6876  -11.0883 C   0  0  0  0  0  0  0  0  0  0  0  0
   27.4703   42.1947  -11.3961 C   0  0  0  0  0  0  0  0  0  0  0  0
   26.1709   42.5873  -11.0073 C   0  0  0  0  0  0  0  0  0  0  0  0
   25.0941   41.5423  -10.7757 C   0  0  0  0  0  0  0  0  0  0  0  0
   24.8602   41.3376   -9.3315 N   0  3  0  0  0  0  0  0  0  0  0  0
   23.5651   41.8634   -8.8408 C   0  0  0  0  0  0  0  0  0  0  0  0
   22.4102   40.8368   -8.9863 C   0  0  0  0  0  0  0  0  0  0  0  0
   22.8421   39.6064   -8.4311 O   0  0  0  0  0  0  0  0  0  0  0  0
   22.1374   40.7405  -10.3742 O   0  0  0  0  0  0  0  0  0  0  0  0
   21.1223   41.2738   -8.2943 C   0  0  1  0  0  0  0  0  0  0  0  0
   20.4357   42.2621   -9.1304 N   0  0  0  0  0  0  0  0  0  0  0  0
   19.4844   43.1143   -8.7260 C   0  0  0  0  0  0  0  0  0  0  0  0
   19.1177   43.1846   -7.5645 O   0  0  0  0  0  0  0  0  0  0  0  0
   18.8968   44.0469   -9.8079 C   0  0  2  0  0  0  0  0  0  0  0  0
   19.4310   45.4515   -9.5422 C   0  0  0  0  0  0  0  0  0  0  0  0
   20.2429   40.0367   -8.0108 C   0  0  0  0  0  0  0  0  0  0  0  0
   19.8758   39.2085   -9.2621 C   0  0  2  0  0  0  0  0  0  0  0  0
   19.0951   40.0662  -10.2538 C   0  0  0  0  0  0  0  0  0  0  0  0
   19.0936   37.9157   -8.9445 C   0  0  0  0  0  0  0  0  0  0  0  0
   17.6368   38.1232   -8.4765 C   0  0  0  0  0  0  0  0  0  0  0  0
   16.6846   38.5882   -9.5971 C   0  0  0  0  0  0  0  0  0  0  0  0
   15.2047   38.6891   -9.1680 C   0  0  0  0  0  0  0  0  0  0  0  0
   14.8872   39.7579   -8.0963 C   0  0  0  0  0  0  0  0  0  0  0  0
   15.3295   41.1966   -8.4369 C   0  0  0  0  0  0  0  0  0  0  0  0
   14.6747   41.7813   -9.7097 C   0  0  0  0  0  0  0  0  0  0  0  0
   15.1646   43.2046  -10.0762 C   0  0  0  0  0  0  0  0  0  0  0  0
   16.6473   43.2677  -10.4593 C   0  0  0  0  0  0  0  0  0  0  0  0
   17.0608   42.5887  -11.3847 O   0  0  0  0  0  0  0  0  0  0  0  0
   17.4218   44.0724   -9.7176 N   0  0  0  0  0  0  0  0  0  0  0  0
   16.7867   44.8092   -8.6436 C   0  0  0  0  0  0  0  0  0  0  0  0
   21.4342   41.7281   -7.3538 H   0  0  0  0  0  0  0  0  0  0  0  0
   19.2549   43.7758  -10.8010 H   0  0  0  0  0  0  0  0  0  0  0  0
   20.7962   38.9332   -9.7771 H   0  0  0  0  0  0  0  0  0  0  0  0
   24.8883   44.2709  -10.5393 H   0  0  0  0  0  0  0  0  0  0  0  0
   26.6520   45.9715  -10.9169 H   0  0  0  0  0  0  0  0  0  0  0  0
   28.9274   45.2853  -11.5961 H   0  0  0  0  0  0  0  0  0  0  0  0
   29.8125   42.2741  -13.0149 H   0  0  0  0  0  0  0  0  0  0  0  0
   30.4173   44.6671  -12.9233 H   0  0  0  0  0  0  0  0  0  0  0  0
   31.8027   43.6469  -12.5702 H   0  0  0  0  0  0  0  0  0  0  0  0
   30.9801   44.4869  -11.2637 H   0  0  0  0  0  0  0  0  0  0  0  0
   29.8445   40.8083  -11.0271 H   0  0  0  0  0  0  0  0  0  0  0  0
   30.6216   42.0720  -10.0770 H   0  0  0  0  0  0  0  0  0  0  0  0
   31.4620   41.3521  -11.4425 H   0  0  0  0  0  0  0  0  0  0  0  0
   27.6888   41.1450  -11.5279 H   0  0  0  0  0  0  0  0  0  0  0  0
   25.3922   40.6007  -11.2391 H   0  0  0  0  0  0  0  0  0  0  0  0
   24.1685   41.8565  -11.2602 H   0  0  0  0  0  0  0  0  0  0  0  0
   25.6038   41.7912   -8.8203 H   0  0  0  0  0  0  0  0  0  0  0  0
   23.3266   42.7744   -9.3923 H   0  0  0  0  0  0  0  0  0  0  0  0
   23.7028   42.1478   -7.7977 H   0  0  0  0  0  0  0  0  0  0  0  0
   23.5116   39.2434   -8.9905 H   0  0  0  0  0  0  0  0  0  0  0  0
   22.9399   40.5240  -10.8237 H   0  0  0  0  0  0  0  0  0  0  0  0
   20.6909   42.2898  -10.1073 H   0  0  0  0  0  0  0  0  0  0  0  0
   20.5170   45.4858   -9.6389 H   0  0  0  0  0  0  0  0  0  0  0  0
   19.1809   45.8045   -8.5413 H   0  0  0  0  0  0  0  0  0  0  0  0
   19.0235   46.1697  -10.2545 H   0  0  0  0  0  0  0  0  0  0  0  0
   20.7768   39.3968   -7.3083 H   0  0  0  0  0  0  0  0  0  0  0  0
   19.3402   40.3507   -7.4867 H   0  0  0  0  0  0  0  0  0  0  0  0
   18.8437   39.5124  -11.1578 H   0  0  0  0  0  0  0  0  0  0  0  0
   19.6669   40.9358  -10.5755 H   0  0  0  0  0  0  0  0  0  0  0  0
   18.1609   40.4275   -9.8223 H   0  0  0  0  0  0  0  0  0  0  0  0
   19.0927   37.2734   -9.8251 H   0  0  0  0  0  0  0  0  0  0  0  0
   19.6358   37.3534   -8.1843 H   0  0  0  0  0  0  0  0  0  0  0  0
   17.6084   38.8219   -7.6404 H   0  0  0  0  0  0  0  0  0  0  0  0
   17.2667   37.1781   -8.0790 H   0  0  0  0  0  0  0  0  0  0  0  0
   17.0158   39.5435  -10.0043 H   0  0  0  0  0  0  0  0  0  0  0  0
   16.7511   37.8841  -10.4265 H   0  0  0  0  0  0  0  0  0  0  0  0
   14.8718   37.7166   -8.8053 H   0  0  0  0  0  0  0  0  0  0  0  0
   14.5967   38.8799  -10.0524 H   0  0  0  0  0  0  0  0  0  0  0  0
   13.8149   39.7522   -7.9009 H   0  0  0  0  0  0  0  0  0  0  0  0
   15.3495   39.4645   -7.1537 H   0  0  0  0  0  0  0  0  0  0  0  0
   16.4158   41.2216   -8.5231 H   0  0  0  0  0  0  0  0  0  0  0  0
   15.0959   41.8435   -7.5912 H   0  0  0  0  0  0  0  0  0  0  0  0
   14.8410   41.1191  -10.5594 H   0  0  0  0  0  0  0  0  0  0  0  0
   13.5939   41.8049   -9.5704 H   0  0  0  0  0  0  0  0  0  0  0  0
   14.9468   43.8914   -9.2583 H   0  0  0  0  0  0  0  0  0  0  0  0
   14.5989   43.5823  -10.9280 H   0  0  0  0  0  0  0  0  0  0  0  0
   17.4240   45.5748   -8.2063 H   0  0  0  0  0  0  0  0  0  0  0  0
   16.4786   44.1427   -7.8371 H   0  0  0  0  0  0  0  0  0  0  0  0
   15.9136   45.3555   -9.0026 H   0  0  0  0  0  0  0  0  0  0  0  0
   24.8956   40.3465   -9.1410 H   0  0  0  0  0  0  0  0  0  0  0  0
  1  9  1  0  0  0  0
  1  2  2  0  0  0  0
  1 40  1  0  0  0  0
  2  3  1  0  0  0  0
  2 41  1  0  0  0  0
  3  4  2  0  0  0  0
  3 42  1  0  0  0  0
  4  5  1  0  0  0  0
  4  8  1  0  0  0  0
  5  6  1  0  0  0  0
  5  7  1  0  0  0  0
  5 43  1  0  0  0  0
  6 44  1  0  0  0  0
  6 45  1  0  0  0  0
  6 46  1  0  0  0  0
  7 47  1  0  0  0  0
  7 48  1  0  0  0  0
  7 49  1  0  0  0  0
  8  9  2  0  0  0  0
  8 50  1  0  0  0  0
  9 10  1  0  0  0  0
 10 11  1  0  0  0  0
 10 51  1  0  0  0  0
 10 52  1  0  0  0  0
 11 12  1  0  0  0  0
 11 53  1  0  0  0  0
 11 86  1  0  0  0  0
 12 13  1  0  0  0  0
 12 54  1  0  0  0  0
 12 55  1  0  0  0  0
 13 14  1  0  0  0  0
 13 15  1  0  0  0  0
 13 16  1  0  0  0  0
 14 56  1  0  0  0  0
 15 57  1  0  0  0  0
 16 37  1  1  0  0  0
 16 17  1  0  0  0  0
 16 22  1  0  0  0  0
 17 18  1  0  0  0  0
 17 58  1  0  0  0  0
 18 19  2  0  0  0  0
 18 20  1  0  0  0  0
 20 38  1  6  0  0  0
 20 35  1  0  0  0  0
 20 21  1  0  0  0  0
 21 59  1  0  0  0  0
 21 60  1  0  0  0  0
 21 61  1  0  0  0  0
 22 23  1  0  0  0  0
 22 62  1  0  0  0  0
 22 63  1  0  0  0  0
 23 39  1  6  0  0  0
 23 24  1  0  0  0  0
 23 25  1  0  0  0  0
 24 64  1  0  0  0  0
 24 65  1  0  0  0  0
 24 66  1  0  0  0  0
 25 26  1  0  0  0  0
 25 67  1  0  0  0  0
 25 68  1  0  0  0  0
 26 27  1  0  0  0  0
 26 69  1  0  0  0  0
 26 70  1  0  0  0  0
 27 28  1  0  0  0  0
 27 71  1  0  0  0  0
 27 72  1  0  0  0  0
 28 29  1  0  0  0  0
 28 73  1  0  0  0  0
 28 74  1  0  0  0  0
 29 30  1  0  0  0  0
 29 75  1  0  0  0  0
 29 76  1  0  0  0  0
 30 31  1  0  0  0  0
 30 77  1  0  0  0  0
 30 78  1  0  0  0  0
 31 32  1  0  0  0  0
 31 79  1  0  0  0  0
 31 80  1  0  0  0  0
 32 33  1  0  0  0  0
 32 81  1  0  0  0  0
 32 82  1  0  0  0  0
 33 34  2  0  0  0  0
 33 35  1  0  0  0  0
 35 36  1  0  0  0  0
 36 83  1  0  0  0  0
 36 84  1  0  0  0  0
 36 85  1  0  0  0  0
M  CHG  1  11   1
M  END
