REMARK energy -4.54328
 OpenBabel09281823033D
Structure written by MMmdl.
 78 79  0  0  1  0  0  0  0  0999 V2000
   22.6141   47.4959  -15.7278 C   0  0  0  0  0  0  0  0  0  0  0  0
   23.3492   47.4017  -14.3859 C   0  0  0  0  0  0  0  0  0  0  0  0
   24.4743   46.3570  -14.3907 C   0  0  0  0  0  0  0  0  0  0  0  0
   25.2745   46.3588  -13.0814 C   0  0  0  0  0  0  0  0  0  0  0  0
   26.2848   45.3117  -13.0759 N   0  0  0  0  0  0  0  0  0  0  0  0
   26.1723   44.1255  -12.3424 C   0  0  0  0  0  0  0  0  0  0  0  0
   25.0489   43.7755  -11.5623 C   0  0  0  0  0  0  0  0  0  0  0  0
   25.0725   42.5709  -10.8241 C   0  0  0  0  0  0  0  0  0  0  0  0
   26.2234   41.7536  -10.9163 C   0  0  0  0  0  0  0  0  0  0  0  0
   27.2791   42.1691  -11.7494 C   0  0  0  0  0  0  0  0  0  0  0  0
   27.2543   43.3352  -12.4364 N   0  0  0  0  0  0  0  0  0  0  0  0
   28.3773   41.3506  -11.9003 O   0  0  0  0  0  0  0  0  0  0  0  0
   29.3389   41.7048  -12.8889 C   0  0  0  0  0  0  0  0  0  0  0  0
   23.8796   42.1739   -9.9966 C   0  0  0  0  0  0  0  0  0  0  0  0
   22.7713   42.6666  -10.2121 O   0  0  0  0  0  0  0  0  0  0  0  0
   24.1292   41.3245   -8.9842 N   0  0  0  0  0  0  0  0  0  0  0  0
   23.1866   40.8420   -7.9621 C   0  0  1  0  0  0  0  0  0  0  0  0
   22.7130   42.0664   -7.1201 C   0  0  0  0  0  0  0  0  0  0  0  0
   22.0492   41.8245   -5.7699 C   0  0  0  0  0  0  0  0  0  0  0  0
   22.4710   40.7953   -4.9045 C   0  0  0  0  0  0  0  0  0  0  0  0
   21.8859   40.6330   -3.6386 C   0  0  0  0  0  0  0  0  0  0  0  0
   20.8781   41.5143   -3.2092 C   0  0  0  0  0  0  0  0  0  0  0  0
   20.4602   42.5567   -4.0562 C   0  0  0  0  0  0  0  0  0  0  0  0
   21.0379   42.7079   -5.3319 C   0  0  0  0  0  0  0  0  0  0  0  0
   22.0386   39.9705   -8.5693 C   0  0  2  0  0  0  0  0  0  0  0  0
   21.5459   38.8070   -7.6631 C   0  0  0  0  0  0  0  0  0  0  0  0
   20.0178   38.6547   -7.4533 C   0  0  1  0  0  0  0  0  0  0  0  0
   19.4230   39.7905   -6.6136 C   0  0  0  0  0  0  0  0  0  0  0  0
   19.1845   38.4614   -8.7312 C   0  0  0  0  0  0  0  0  0  0  0  0
   19.4112   39.1079   -9.7528 O   0  0  0  0  0  0  0  0  0  0  0  0
   18.1679   37.5948   -8.6350 N   0  0  0  0  0  0  0  0  0  0  0  0
   17.1040   37.4468   -9.6159 C   0  0  0  0  0  0  0  0  0  0  0  0
   15.7457   37.6571   -8.9430 C   0  0  0  0  0  0  0  0  0  0  0  0
   15.5403   39.0608   -8.3619 C   0  0  0  0  0  0  0  0  0  0  0  0
   14.1867   39.1839   -7.6645 C   0  0  0  0  0  0  0  0  0  0  0  0
   22.4599   39.3591   -9.7775 O   0  0  0  0  0  0  0  0  0  0  0  0
   23.8029   40.1894   -7.3464 H   0  0  0  0  0  0  0  0  0  0  0  0
   21.2144   40.6371   -8.8226 H   0  0  0  0  0  0  0  0  0  0  0  0
   19.8914   37.7502   -6.8602 H   0  0  0  0  0  0  0  0  0  0  0  0
   21.8260   48.2496  -15.6857 H   0  0  0  0  0  0  0  0  0  0  0  0
   22.1518   46.5469  -15.9938 H   0  0  0  0  0  0  0  0  0  0  0  0
   23.2959   47.7754  -16.5313 H   0  0  0  0  0  0  0  0  0  0  0  0
   22.6331   47.1658  -13.5976 H   0  0  0  0  0  0  0  0  0  0  0  0
   23.7635   48.3792  -14.1407 H   0  0  0  0  0  0  0  0  0  0  0  0
   25.1520   46.5551  -15.2229 H   0  0  0  0  0  0  0  0  0  0  0  0
   24.0603   45.3631  -14.5612 H   0  0  0  0  0  0  0  0  0  0  0  0
   24.6064   46.2871  -12.2230 H   0  0  0  0  0  0  0  0  0  0  0  0
   25.7871   47.3158  -12.9732 H   0  0  0  0  0  0  0  0  0  0  0  0
   27.1613   45.4831  -13.5445 H   0  0  0  0  0  0  0  0  0  0  0  0
   24.1737   44.4034  -11.5118 H   0  0  0  0  0  0  0  0  0  0  0  0
   26.2949   40.8001  -10.4143 H   0  0  0  0  0  0  0  0  0  0  0  0
   30.1205   40.9500  -12.9281 H   0  0  0  0  0  0  0  0  0  0  0  0
   29.8166   42.6591  -12.6632 H   0  0  0  0  0  0  0  0  0  0  0  0
   28.8847   41.7557  -13.8792 H   0  0  0  0  0  0  0  0  0  0  0  0
   25.0764   40.9863   -8.9133 H   0  0  0  0  0  0  0  0  0  0  0  0
   23.5705   42.7088   -6.9128 H   0  0  0  0  0  0  0  0  0  0  0  0
   22.0332   42.6716   -7.7211 H   0  0  0  0  0  0  0  0  0  0  0  0
   23.2599   40.1257   -5.1938 H   0  0  0  0  0  0  0  0  0  0  0  0
   22.2269   39.8386   -2.9945 H   0  0  0  0  0  0  0  0  0  0  0  0
   20.4253   41.3934   -2.2359 H   0  0  0  0  0  0  0  0  0  0  0  0
   19.6864   43.2356   -3.7284 H   0  0  0  0  0  0  0  0  0  0  0  0
   20.7054   43.5137   -5.9696 H   0  0  0  0  0  0  0  0  0  0  0  0
   21.9991   38.8859   -6.6803 H   0  0  0  0  0  0  0  0  0  0  0  0
   21.9303   37.8582   -8.0397 H   0  0  0  0  0  0  0  0  0  0  0  0
   19.8821   39.8271   -5.6271 H   0  0  0  0  0  0  0  0  0  0  0  0
   18.3546   39.6484   -6.4531 H   0  0  0  0  0  0  0  0  0  0  0  0
   19.5558   40.7646   -7.0864 H   0  0  0  0  0  0  0  0  0  0  0  0
   18.0173   37.1327   -7.7481 H   0  0  0  0  0  0  0  0  0  0  0  0
   17.1590   36.4449  -10.0395 H   0  0  0  0  0  0  0  0  0  0  0  0
   17.2129   38.1494  -10.4410 H   0  0  0  0  0  0  0  0  0  0  0  0
   15.6600   36.9477   -8.1249 H   0  0  0  0  0  0  0  0  0  0  0  0
   14.9462   37.4281   -9.6477 H   0  0  0  0  0  0  0  0  0  0  0  0
   15.6218   39.8111   -9.1483 H   0  0  0  0  0  0  0  0  0  0  0  0
   16.3202   39.2837   -7.6339 H   0  0  0  0  0  0  0  0  0  0  0  0
   14.0925   40.1528   -7.1772 H   0  0  0  0  0  0  0  0  0  0  0  0
   14.0631   38.4274   -6.8897 H   0  0  0  0  0  0  0  0  0  0  0  0
   13.3713   39.0695   -8.3794 H   0  0  0  0  0  0  0  0  0  0  0  0
   23.3179   38.9632   -9.6414 H   0  0  0  0  0  0  0  0  0  0  0  0
  1  2  1  0  0  0  0
  1 40  1  0  0  0  0
  1 41  1  0  0  0  0
  1 42  1  0  0  0  0
  2  3  1  0  0  0  0
  2 43  1  0  0  0  0
  2 44  1  0  0  0  0
  3  4  1  0  0  0  0
  3 45  1  0  0  0  0
  3 46  1  0  0  0  0
  4  5  1  0  0  0  0
  4 47  1  0  0  0  0
  4 48  1  0  0  0  0
  5  6  1  0  0  0  0
  5 49  1  0  0  0  0
  6 11  1  0  0  0  0
  6  7  2  0  0  0  0
  7  8  1  0  0  0  0
  7 50  1  0  0  0  0
  8  9  2  0  0  0  0
  8 14  1  0  0  0  0
  9 10  1  0  0  0  0
  9 51  1  0  0  0  0
 10 11  2  0  0  0  0
 10 12  1  0  0  0  0
 12 13  1  0  0  0  0
 13 52  1  0  0  0  0
 13 53  1  0  0  0  0
 13 54  1  0  0  0  0
 14 15  2  0  0  0  0
 14 16  1  0  0  0  0
 16 17  1  0  0  0  0
 16 55  1  0  0  0  0
 17 37  1  1  0  0  0
 17 18  1  0  0  0  0
 17 25  1  0  0  0  0
 18 19  1  0  0  0  0
 18 56  1  0  0  0  0
 18 57  1  0  0  0  0
 19 24  1  0  0  0  0
 19 20  2  0  0  0  0
 20 21  1  0  0  0  0
 20 58  1  0  0  0  0
 21 22  2  0  0  0  0
 21 59  1  0  0  0  0
 22 23  1  0  0  0  0
 22 60  1  0  0  0  0
 23 24  2  0  0  0  0
 23 61  1  0  0  0  0
 24 62  1  0  0  0  0
 25 38  1  6  0  0  0
 25 26  1  0  0  0  0
 25 36  1  0  0  0  0
 26 27  1  0  0  0  0
 26 63  1  0  0  0  0
 26 64  1  0  0  0  0
 27 39  1  1  0  0  0
 27 28  1  0  0  0  0
 27 29  1  0  0  0  0
 28 65  1  0  0  0  0
 28 66  1  0  0  0  0
 28 67  1  0  0  0  0
 29 30  2  0  0  0  0
 29 31  1  0  0  0  0
 31 32  1  0  0  0  0
 31 68  1  0  0  0  0
 32 33  1  0  0  0  0
 32 69  1  0  0  0  0
 32 70  1  0  0  0  0
 33 34  1  0  0  0  0
 33 71  1  0  0  0  0
 33 72  1  0  0  0  0
 34 35  1  0  0  0  0
 34 73  1  0  0  0  0
 34 74  1  0  0  0  0
 35 75  1  0  0  0  0
 35 76  1  0  0  0  0
 35 77  1  0  0  0  0
 36 78  1  0  0  0  0
M  END
