REMARK energy -5.06639
 OpenBabel09281823033D
Structure written by MMmdl.
 79 80  0  0  1  0  0  0  0  0999 V2000
   30.9516   41.7783  -13.6541 C   0  0  0  0  0  0  0  0  0  0  0  0
   29.5434   41.5290  -13.1032 C   0  0  0  0  0  0  0  0  0  0  0  0
   29.0379   42.6875  -12.2287 C   0  0  0  0  0  0  0  0  0  0  0  0
   27.6696   42.4813  -11.6588 C   0  0  0  0  0  0  0  0  0  0  0  0
   26.5586   43.2793  -11.6559 C   0  0  0  0  0  0  0  0  0  0  0  0
   25.5864   42.5407  -10.9159 C   0  0  0  0  0  0  0  0  0  0  0  0
   26.0613   41.3797  -10.4944 N   0  0  0  0  0  0  0  0  0  0  0  0
   27.3173   41.3500  -10.9609 N   0  0  0  0  0  0  0  0  0  0  0  0
   24.1722   42.9396  -10.5848 C   0  0  0  0  0  0  0  0  0  0  0  0
   23.1845   41.8861  -10.8400 N   0  0  0  0  0  0  0  0  0  0  0  0
   22.9959   40.9598   -9.7140 C   0  0  0  0  0  0  0  0  0  0  0  0
   21.8330   39.9659   -9.9458 C   0  0  2  0  0  0  0  0  0  0  0  0
   20.4348   40.5593   -9.6158 C   0  0  2  0  0  0  0  0  0  0  0  0
   19.2735   39.5591   -9.8704 C   0  0  0  0  0  0  0  0  0  0  0  0
   18.2657   39.4443   -8.6983 C   0  0  1  0  0  0  0  0  0  0  0  0
   16.9787   38.6869   -9.0994 C   0  0  0  0  0  0  0  0  0  0  0  0
   16.0752   39.3841  -10.1343 C   0  0  0  0  0  0  0  0  0  0  0  0
   15.5020   40.7340   -9.6640 C   0  0  0  0  0  0  0  0  0  0  0  0
   14.4804   41.3058  -10.6595 C   0  0  0  0  0  0  0  0  0  0  0  0
   13.8986   42.6687  -10.2475 C   0  0  0  0  0  0  0  0  0  0  0  0
   14.8681   43.8399  -10.4546 C   0  0  0  0  0  0  0  0  0  0  0  0
   14.9803   44.1292  -11.8454 O   0  0  0  0  0  0  0  0  0  0  0  0
   15.9909   45.0758  -12.1865 C   0  0  0  0  0  0  0  0  0  0  0  0
   17.3781   44.4102  -12.1293 C   0  0  0  0  0  0  0  0  0  0  0  0
   17.6267   43.5736  -13.0009 O   0  0  0  0  0  0  0  0  0  0  0  0
   18.2606   44.7340  -11.1445 N   0  0  0  0  0  0  0  0  0  0  0  0
   19.5552   44.0178  -11.0611 C   0  0  2  0  0  0  0  0  0  0  0  0
   19.4640   42.8211  -10.0984 C   0  0  0  0  0  0  0  0  0  0  0  0
   18.7300   42.8565   -9.1114 O   0  0  0  0  0  0  0  0  0  0  0  0
   20.2452   41.7762  -10.3982 N   0  0  0  0  0  0  0  0  0  0  0  0
   20.7066   44.9463  -10.6102 C   0  0  0  0  0  0  0  0  0  0  0  0
   17.9402   45.7198  -10.0973 C   0  0  0  0  0  0  0  0  0  0  0  0
   18.9000   38.7583   -7.4731 C   0  0  0  0  0  0  0  0  0  0  0  0
   22.0592   38.8707   -9.0823 O   0  0  0  0  0  0  0  0  0  0  0  0
   27.8944   40.5154  -10.8404 H   0  0  0  0  0  0  0  0  0  0  0  0
   21.8597   39.5886  -10.9711 H   0  0  0  0  0  0  0  0  0  0  0  0
   20.4452   40.8536   -8.5653 H   0  0  0  0  0  0  0  0  0  0  0  0
   17.9837   40.4468   -8.3809 H   0  0  0  0  0  0  0  0  0  0  0  0
   19.8433   43.6379  -12.0399 H   0  0  0  0  0  0  0  0  0  0  0  0
   31.2699   40.9498  -14.2871 H   0  0  0  0  0  0  0  0  0  0  0  0
   31.6781   41.8757  -12.8458 H   0  0  0  0  0  0  0  0  0  0  0  0
   30.9863   42.6869  -14.2566 H   0  0  0  0  0  0  0  0  0  0  0  0
   29.5559   40.6012  -12.5286 H   0  0  0  0  0  0  0  0  0  0  0  0
   28.8600   41.3706  -13.9379 H   0  0  0  0  0  0  0  0  0  0  0  0
   29.0451   43.6074  -12.8149 H   0  0  0  0  0  0  0  0  0  0  0  0
   29.7397   42.8513  -11.4099 H   0  0  0  0  0  0  0  0  0  0  0  0
   26.4543   44.2528  -12.1092 H   0  0  0  0  0  0  0  0  0  0  0  0
   23.9171   43.8043  -11.1969 H   0  0  0  0  0  0  0  0  0  0  0  0
   24.1079   43.2842   -9.5524 H   0  0  0  0  0  0  0  0  0  0  0  0
   23.5177   41.3497  -11.6478 H   0  0  0  0  0  0  0  0  0  0  0  0
   22.8169   41.5115   -8.7890 H   0  0  0  0  0  0  0  0  0  0  0  0
   23.9141   40.3983   -9.5535 H   0  0  0  0  0  0  0  0  0  0  0  0
   18.7578   39.8484  -10.7851 H   0  0  0  0  0  0  0  0  0  0  0  0
   19.6682   38.5662  -10.0856 H   0  0  0  0  0  0  0  0  0  0  0  0
   17.2484   37.7001   -9.4765 H   0  0  0  0  0  0  0  0  0  0  0  0
   16.3807   38.5009   -8.2056 H   0  0  0  0  0  0  0  0  0  0  0  0
   15.2456   38.7129  -10.3572 H   0  0  0  0  0  0  0  0  0  0  0  0
   16.6034   39.5204  -11.0774 H   0  0  0  0  0  0  0  0  0  0  0  0
   15.0259   40.6069   -8.6893 H   0  0  0  0  0  0  0  0  0  0  0  0
   16.3173   41.4436   -9.5255 H   0  0  0  0  0  0  0  0  0  0  0  0
   13.6609   40.5915  -10.7542 H   0  0  0  0  0  0  0  0  0  0  0  0
   14.9411   41.3846  -11.6405 H   0  0  0  0  0  0  0  0  0  0  0  0
   12.9859   42.8606  -10.8115 H   0  0  0  0  0  0  0  0  0  0  0  0
   13.6008   42.6221   -9.2014 H   0  0  0  0  0  0  0  0  0  0  0  0
   15.8298   43.5999  -10.0057 H   0  0  0  0  0  0  0  0  0  0  0  0
   14.4930   44.7264   -9.9443 H   0  0  0  0  0  0  0  0  0  0  0  0
   15.8989   45.9876  -11.5979 H   0  0  0  0  0  0  0  0  0  0  0  0
   15.8284   45.3818  -13.2222 H   0  0  0  0  0  0  0  0  0  0  0  0
   20.8688   41.8815  -11.1886 H   0  0  0  0  0  0  0  0  0  0  0  0
   21.6668   44.4639  -10.7840 H   0  0  0  0  0  0  0  0  0  0  0  0
   20.6733   45.1978   -9.5500 H   0  0  0  0  0  0  0  0  0  0  0  0
   20.7107   45.8757  -11.1812 H   0  0  0  0  0  0  0  0  0  0  0  0
   18.5881   45.6402   -9.2261 H   0  0  0  0  0  0  0  0  0  0  0  0
   16.9358   45.5916   -9.6953 H   0  0  0  0  0  0  0  0  0  0  0  0
   18.0239   46.7332  -10.4925 H   0  0  0  0  0  0  0  0  0  0  0  0
   18.1846   38.6795   -6.6527 H   0  0  0  0  0  0  0  0  0  0  0  0
   19.7586   39.3089   -7.0885 H   0  0  0  0  0  0  0  0  0  0  0  0
   19.2354   37.7501   -7.7158 H   0  0  0  0  0  0  0  0  0  0  0  0
   22.9378   38.5472   -9.2425 H   0  0  0  0  0  0  0  0  0  0  0  0
  1  2  1  0  0  0  0
  1 40  1  0  0  0  0
  1 41  1  0  0  0  0
  1 42  1  0  0  0  0
  2  3  1  0  0  0  0
  2 43  1  0  0  0  0
  2 44  1  0  0  0  0
  3  4  1  0  0  0  0
  3 45  1  0  0  0  0
  3 46  1  0  0  0  0
  4  8  1  0  0  0  0
  4  5  2  0  0  0  0
  5  6  1  0  0  0  0
  5 47  1  0  0  0  0
  6  7  2  0  0  0  0
  6  9  1  0  0  0  0
  7  8  1  0  0  0  0
  8 35  1  0  0  0  0
  9 10  1  0  0  0  0
  9 48  1  0  0  0  0
  9 49  1  0  0  0  0
 10 11  1  0  0  0  0
 10 50  1  0  0  0  0
 11 12  1  0  0  0  0
 11 51  1  0  0  0  0
 11 52  1  0  0  0  0
 12 36  1  6  0  0  0
 12 13  1  0  0  0  0
 12 34  1  0  0  0  0
 13 37  1  1  0  0  0
 13 30  1  0  0  0  0
 13 14  1  0  0  0  0
 14 15  1  0  0  0  0
 14 53  1  0  0  0  0
 14 54  1  0  0  0  0
 15 38  1  1  0  0  0
 15 16  1  0  0  0  0
 15 33  1  0  0  0  0
 16 17  1  0  0  0  0
 16 55  1  0  0  0  0
 16 56  1  0  0  0  0
 17 18  1  0  0  0  0
 17 57  1  0  0  0  0
 17 58  1  0  0  0  0
 18 19  1  0  0  0  0
 18 59  1  0  0  0  0
 18 60  1  0  0  0  0
 19 20  1  0  0  0  0
 19 61  1  0  0  0  0
 19 62  1  0  0  0  0
 20 21  1  0  0  0  0
 20 63  1  0  0  0  0
 20 64  1  0  0  0  0
 21 22  1  0  0  0  0
 21 65  1  0  0  0  0
 21 66  1  0  0  0  0
 22 23  1  0  0  0  0
 23 24  1  0  0  0  0
 23 67  1  0  0  0  0
 23 68  1  0  0  0  0
 24 25  2  0  0  0  0
 24 26  1  0  0  0  0
 26 27  1  0  0  0  0
 26 32  1  0  0  0  0
 27 39  1  6  0  0  0
 27 28  1  0  0  0  0
 27 31  1  0  0  0  0
 28 29  2  0  0  0  0
 28 30  1  0  0  0  0
 30 69  1  0  0  0  0
 31 70  1  0  0  0  0
 31 71  1  0  0  0  0
 31 72  1  0  0  0  0
 32 73  1  0  0  0  0
 32 74  1  0  0  0  0
 32 75  1  0  0  0  0
 33 76  1  0  0  0  0
 33 77  1  0  0  0  0
 33 78  1  0  0  0  0
 34 79  1  0  0  0  0
M  END
