REMARK energy -3.53437
 OpenBabel09281823033D
Structure written by MMmdl.
 99103  0  0  1  0  0  0  0  0999 V2000
   18.1837   38.3914   -6.3902 C   0  0  0  0  0  0  0  0  0  0  0  0
   18.2937   38.7885   -7.8731 C   0  0  2  0  0  0  0  0  0  0  0  0
   17.4101   37.8880   -8.7699 C   0  0  0  0  0  0  0  0  0  0  0  0
   15.9356   38.3390   -8.7991 C   0  0  0  0  0  0  0  0  0  0  0  0
   15.7003   39.5988   -9.6582 C   0  0  0  0  0  0  0  0  0  0  0  0
   14.4598   40.3953   -9.2172 C   0  0  0  0  0  0  0  0  0  0  0  0
   14.1841   41.6579  -10.0563 C   0  0  0  0  0  0  0  0  0  0  0  0
   15.2598   42.6651   -9.9413 N   0  0  0  0  0  0  0  0  0  0  0  0
   15.2388   43.5504   -8.9124 C   0  0  0  0  0  0  0  0  0  0  0  0
   14.1962   44.0002   -8.4364 O   0  0  0  0  0  0  0  0  0  0  0  0
   16.5670   43.9845   -8.3630 C   0  0  0  0  0  0  0  0  0  0  0  0
   16.8255   45.3501   -8.1264 C   0  0  0  0  0  0  0  0  0  0  0  0
   18.0706   45.7575   -7.6030 C   0  0  0  0  0  0  0  0  0  0  0  0
   19.0652   44.7948   -7.3307 C   0  0  0  0  0  0  0  0  0  0  0  0
   18.8284   43.4231   -7.5708 C   0  0  0  0  0  0  0  0  0  0  0  0
   17.5541   43.0265   -8.0383 C   0  0  0  0  0  0  0  0  0  0  0  0
   19.9056   42.4044   -7.2951 C   0  0  0  0  0  0  0  0  0  0  0  0
   20.8090   42.6228   -6.4873 O   0  0  0  0  0  0  0  0  0  0  0  0
   19.8377   41.2854   -8.0317 N   0  0  0  0  0  0  0  0  0  0  0  0
   20.5828   40.0435   -7.8014 C   0  0  1  0  0  0  0  0  0  0  0  0
   19.7612   38.8618   -8.3764 C   0  0  0  0  0  0  0  0  0  0  0  0
   22.0307   40.1033   -8.3699 C   0  0  1  0  0  0  0  0  0  0  0  0
   22.1829   40.7902   -9.7543 C   0  0  0  0  0  0  0  0  0  0  0  0
   23.5836   40.8343  -10.2500 N   0  3  0  0  0  0  0  0  0  0  0  0
   24.4039   41.9226   -9.6772 C   0  0  0  0  0  0  0  0  0  0  0  0
   25.4080   42.4590  -10.6775 C   0  0  0  0  0  0  0  0  0  0  0  0
   25.0159   43.4736  -11.5766 C   0  0  0  0  0  0  0  0  0  0  0  0
   25.9554   44.0363  -12.4599 C   0  0  0  0  0  0  0  0  0  0  0  0
   27.2882   43.5872  -12.4501 C   0  0  0  0  0  0  0  0  0  0  0  0
   27.6899   42.5605  -11.5679 C   0  0  0  0  0  0  0  0  0  0  0  0
   26.7407   41.9937  -10.6890 C   0  0  0  0  0  0  0  0  0  0  0  0
   29.1448   42.1091  -11.5263 C   0  0  0  0  0  0  0  0  0  0  0  0
   30.0458   43.2023  -10.9337 C   0  0  0  0  0  0  0  0  0  0  0  0
   29.6534   41.6427  -12.9015 C   0  0  0  0  0  0  0  0  0  0  0  0
   22.8242   40.7419   -7.3934 O   0  0  0  0  0  0  0  0  0  0  0  0
   18.3183   47.1674   -7.3294 C   0  0  0  0  0  0  0  0  0  0  0  0
   17.6600   48.2329   -7.7915 N   0  0  0  0  0  0  0  0  0  0  0  0
   18.3127   49.3262   -7.2400 C   0  0  0  0  0  0  0  0  0  0  0  0
   19.3225   48.8599   -6.4416 C   0  0  0  0  0  0  0  0  0  0  0  0
   19.3369   47.4923   -6.4876 O   0  0  0  0  0  0  0  0  0  0  0  0
   15.9578   43.0087  -11.2063 C   0  0  2  0  0  0  0  0  0  0  0  0
   17.4878   42.7895  -11.1851 C   0  0  0  0  0  0  0  0  0  0  0  0
   15.5021   44.3623  -11.7753 C   0  0  0  0  0  0  0  0  0  0  0  0
   14.1291   44.5621  -12.0410 C   0  0  0  0  0  0  0  0  0  0  0  0
   13.6697   45.7813  -12.5770 C   0  0  0  0  0  0  0  0  0  0  0  0
   14.5810   46.8212  -12.8401 C   0  0  0  0  0  0  0  0  0  0  0  0
   15.9488   46.6396  -12.5593 C   0  0  0  0  0  0  0  0  0  0  0  0
   16.4099   45.4182  -12.0304 C   0  0  0  0  0  0  0  0  0  0  0  0
   17.8709   39.7862   -7.9316 H   0  0  0  0  0  0  0  0  0  0  0  0
   20.6429   39.8788   -6.7229 H   0  0  0  0  0  0  0  0  0  0  0  0
   22.4213   39.0843   -8.4419 H   0  0  0  0  0  0  0  0  0  0  0  0
   15.6378   42.2899  -11.9552 H   0  0  0  0  0  0  0  0  0  0  0  0
   18.4601   37.3505   -6.2243 H   0  0  0  0  0  0  0  0  0  0  0  0
   17.1598   38.5145   -6.0413 H   0  0  0  0  0  0  0  0  0  0  0  0
   18.8042   39.0134   -5.7477 H   0  0  0  0  0  0  0  0  0  0  0  0
   17.7801   37.8689   -9.7941 H   0  0  0  0  0  0  0  0  0  0  0  0
   17.4689   36.8586   -8.4159 H   0  0  0  0  0  0  0  0  0  0  0  0
   15.3172   37.5309   -9.1890 H   0  0  0  0  0  0  0  0  0  0  0  0
   15.5894   38.4989   -7.7779 H   0  0  0  0  0  0  0  0  0  0  0  0
   16.5656   40.2517   -9.6067 H   0  0  0  0  0  0  0  0  0  0  0  0
   15.6116   39.3111  -10.7063 H   0  0  0  0  0  0  0  0  0  0  0  0
   13.5890   39.7415   -9.2629 H   0  0  0  0  0  0  0  0  0  0  0  0
   14.5669   40.6772   -8.1677 H   0  0  0  0  0  0  0  0  0  0  0  0
   14.0016   41.3500  -11.0852 H   0  0  0  0  0  0  0  0  0  0  0  0
   13.2319   42.0854   -9.7364 H   0  0  0  0  0  0  0  0  0  0  0  0
   16.0644   46.0860   -8.3432 H   0  0  0  0  0  0  0  0  0  0  0  0
   20.0279   45.1068   -6.9456 H   0  0  0  0  0  0  0  0  0  0  0  0
   17.3223   41.9827   -8.1763 H   0  0  0  0  0  0  0  0  0  0  0  0
   19.0729   41.2274   -8.6884 H   0  0  0  0  0  0  0  0  0  0  0  0
   20.2636   37.9185   -8.1623 H   0  0  0  0  0  0  0  0  0  0  0  0
   19.7571   38.9537   -9.4621 H   0  0  0  0  0  0  0  0  0  0  0  0
   21.6068   40.2227  -10.4828 H   0  0  0  0  0  0  0  0  0  0  0  0
   21.7646   41.7960   -9.7609 H   0  0  0  0  0  0  0  0  0  0  0  0
   24.0425   39.9514  -10.0485 H   0  0  0  0  0  0  0  0  0  0  0  0
   23.7738   42.7553   -9.3584 H   0  0  0  0  0  0  0  0  0  0  0  0
   24.9084   41.5578   -8.7826 H   0  0  0  0  0  0  0  0  0  0  0  0
   23.9984   43.8393  -11.5822 H   0  0  0  0  0  0  0  0  0  0  0  0
   25.6552   44.8190  -13.1430 H   0  0  0  0  0  0  0  0  0  0  0  0
   28.0000   44.0400  -13.1209 H   0  0  0  0  0  0  0  0  0  0  0  0
   27.0437   41.2128  -10.0044 H   0  0  0  0  0  0  0  0  0  0  0  0
   29.2050   41.2578  -10.8497 H   0  0  0  0  0  0  0  0  0  0  0  0
   29.7078   43.4849   -9.9348 H   0  0  0  0  0  0  0  0  0  0  0  0
   30.0461   44.0997  -11.5525 H   0  0  0  0  0  0  0  0  0  0  0  0
   31.0772   42.8572  -10.8485 H   0  0  0  0  0  0  0  0  0  0  0  0
   29.0843   40.7829  -13.2631 H   0  0  0  0  0  0  0  0  0  0  0  0
   30.7026   41.3500  -12.8475 H   0  0  0  0  0  0  0  0  0  0  0  0
   29.5845   42.4290  -13.6560 H   0  0  0  0  0  0  0  0  0  0  0  0
   22.3124   41.4543   -7.0109 H   0  0  0  0  0  0  0  0  0  0  0  0
   18.0032   50.3390   -7.4523 H   0  0  0  0  0  0  0  0  0  0  0  0
   20.0633   49.3342   -5.8124 H   0  0  0  0  0  0  0  0  0  0  0  0
   17.8948   42.8353  -12.1953 H   0  0  0  0  0  0  0  0  0  0  0  0
   17.7459   41.8091  -10.7852 H   0  0  0  0  0  0  0  0  0  0  0  0
   18.0223   43.5356  -10.6003 H   0  0  0  0  0  0  0  0  0  0  0  0
   13.4180   43.7694  -11.8485 H   0  0  0  0  0  0  0  0  0  0  0  0
   12.6214   45.9147  -12.7975 H   0  0  0  0  0  0  0  0  0  0  0  0
   14.2385   47.7503  -13.2704 H   0  0  0  0  0  0  0  0  0  0  0  0
   16.6516   47.4376  -12.7583 H   0  0  0  0  0  0  0  0  0  0  0  0
   17.4645   45.3181  -11.8273 H   0  0  0  0  0  0  0  0  0  0  0  0
   23.5734   40.9557  -11.2583 H   0  0  0  0  0  0  0  0  0  0  0  0
  1  2  1  0  0  0  0
  1 53  1  0  0  0  0
  1 54  1  0  0  0  0
  1 55  1  0  0  0  0
  2 49  1  6  0  0  0
  2 21  1  0  0  0  0
  2  3  1  0  0  0  0
  3  4  1  0  0  0  0
  3 56  1  0  0  0  0
  3 57  1  0  0  0  0
  4  5  1  0  0  0  0
  4 58  1  0  0  0  0
  4 59  1  0  0  0  0
  5  6  1  0  0  0  0
  5 60  1  0  0  0  0
  5 61  1  0  0  0  0
  6  7  1  0  0  0  0
  6 62  1  0  0  0  0
  6 63  1  0  0  0  0
  7  8  1  0  0  0  0
  7 64  1  0  0  0  0
  7 65  1  0  0  0  0
  8  9  1  0  0  0  0
  8 41  1  0  0  0  0
  9 10  2  0  0  0  0
  9 11  1  0  0  0  0
 11 16  1  0  0  0  0
 11 12  2  0  0  0  0
 12 13  1  0  0  0  0
 12 66  1  0  0  0  0
 13 14  2  0  0  0  0
 13 36  1  0  0  0  0
 14 15  1  0  0  0  0
 14 67  1  0  0  0  0
 15 16  2  0  0  0  0
 15 17  1  0  0  0  0
 16 68  1  0  0  0  0
 17 18  2  0  0  0  0
 17 19  1  0  0  0  0
 19 20  1  0  0  0  0
 19 69  1  0  0  0  0
 20 50  1  1  0  0  0
 20 21  1  0  0  0  0
 20 22  1  0  0  0  0
 21 70  1  0  0  0  0
 21 71  1  0  0  0  0
 22 51  1  6  0  0  0
 22 23  1  0  0  0  0
 22 35  1  0  0  0  0
 23 24  1  0  0  0  0
 23 72  1  0  0  0  0
 23 73  1  0  0  0  0
 24 25  1  0  0  0  0
 24 74  1  0  0  0  0
 24 99  1  0  0  0  0
 25 26  1  0  0  0  0
 25 75  1  0  0  0  0
 25 76  1  0  0  0  0
 26 31  1  0  0  0  0
 26 27  2  0  0  0  0
 27 28  1  0  0  0  0
 27 77  1  0  0  0  0
 28 29  2  0  0  0  0
 28 78  1  0  0  0  0
 29 30  1  0  0  0  0
 29 79  1  0  0  0  0
 30 31  2  0  0  0  0
 30 32  1  0  0  0  0
 31 80  1  0  0  0  0
 32 33  1  0  0  0  0
 32 34  1  0  0  0  0
 32 81  1  0  0  0  0
 33 82  1  0  0  0  0
 33 83  1  0  0  0  0
 33 84  1  0  0  0  0
 34 85  1  0  0  0  0
 34 86  1  0  0  0  0
 34 87  1  0  0  0  0
 35 88  1  0  0  0  0
 36 40  1  0  0  0  0
 36 37  2  0  0  0  0
 37 38  1  0  0  0  0
 38 39  2  0  0  0  0
 38 89  1  0  0  0  0
 39 40  1  0  0  0  0
 39 90  1  0  0  0  0
 41 52  1  6  0  0  0
 41 42  1  0  0  0  0
 41 43  1  0  0  0  0
 42 91  1  0  0  0  0
 42 92  1  0  0  0  0
 42 93  1  0  0  0  0
 43 48  1  0  0  0  0
 43 44  2  0  0  0  0
 44 45  1  0  0  0  0
 44 94  1  0  0  0  0
 45 46  2  0  0  0  0
 45 95  1  0  0  0  0
 46 47  1  0  0  0  0
 46 96  1  0  0  0  0
 47 48  2  0  0  0  0
 47 97  1  0  0  0  0
 48 98  1  0  0  0  0
M  CHG  1  24   1
M  END
