BACE_81.smi:1
 OpenBabel10021819343D
Structure written by MMmdl.
 92 96  0  0  1  0  0  0  0  0999 V2000
   22.4373   47.7487   -7.4659 C   0  0  0  0  0  0  0  0  0  0  0  0
   21.9144   46.3136   -7.2825 C   0  0  2  0  0  0  0  0  0  0  0  0
   23.0910   45.3227   -7.1200 C   0  0  0  0  0  0  0  0  0  0  0  0
   23.6218   45.2102   -5.6778 C   0  0  0  0  0  0  0  0  0  0  0  0
   22.7322   44.3664   -4.7466 C   0  0  0  0  0  0  0  0  0  0  0  0
   22.8436   42.8592   -5.0110 C   0  0  0  0  0  0  0  0  0  0  0  0
   21.8681   42.0239   -4.1689 C   0  0  0  0  0  0  0  0  0  0  0  0
   21.8814   40.5136   -4.4851 C   0  0  0  0  0  0  0  0  0  0  0  0
   21.3288   40.1420   -5.8771 C   0  0  0  0  0  0  0  0  0  0  0  0
   22.3898   40.1217   -6.8328 O   0  0  0  0  0  0  0  0  0  0  0  0
   22.3591   40.9136   -7.9642 C   0  0  0  0  0  0  0  0  0  0  0  0
   23.5886   41.0705   -8.6393 C   0  0  0  0  0  0  0  0  0  0  0  0
   23.7010   41.9000   -9.7750 C   0  0  0  0  0  0  0  0  0  0  0  0
   22.5537   42.5502  -10.2668 C   0  0  0  0  0  0  0  0  0  0  0  0
   21.3154   42.4025   -9.6154 C   0  0  0  0  0  0  0  0  0  0  0  0
   21.2127   41.5759   -8.4728 C   0  0  0  0  0  0  0  0  0  0  0  0
   20.1201   43.1171  -10.1660 C   0  0  0  0  0  0  0  0  0  0  0  0
   19.6245   42.7633  -11.2333 O   0  0  0  0  0  0  0  0  0  0  0  0
   19.6365   44.1780   -9.4960 N   0  0  0  0  0  0  0  0  0  0  0  0
   20.0228   44.7276   -8.1959 C   0  0  1  0  0  0  0  0  0  0  0  0
   20.9879   45.9170   -8.4563 C   0  0  0  0  0  0  0  0  0  0  0  0
   18.7385   45.1329   -7.4005 C   0  0  2  0  0  0  0  0  0  0  0  0
   19.0800   45.3468   -6.0446 O   0  0  0  0  0  0  0  0  0  0  0  0
   17.5844   44.0950   -7.3675 C   0  0  0  0  0  0  0  0  0  0  0  0
   16.8954   43.9772   -8.6580 N   0  0  0  0  0  0  0  0  0  0  0  0
   15.6848   43.1595   -8.6686 C   0  0  0  0  0  0  0  0  0  0  0  0
   14.7372   43.3935   -9.8235 C   0  0  0  0  0  0  0  0  0  0  0  0
   14.3513   43.8431   -8.4397 C   0  0  0  0  0  0  0  0  0  0  0  0
   15.9259   41.7309   -8.2565 C   0  0  0  0  0  0  0  0  0  0  0  0
   16.7612   40.8467   -8.9753 C   0  0  0  0  0  0  0  0  0  0  0  0
   16.9857   39.5282   -8.5004 C   0  0  0  0  0  0  0  0  0  0  0  0
   16.3204   39.1400   -7.3134 C   0  0  0  0  0  0  0  0  0  0  0  0
   15.4917   40.0495   -6.6389 C   0  0  0  0  0  0  0  0  0  0  0  0
   15.3467   41.3039   -7.1156 N   0  3  0  0  0  0  0  0  0  0  0  0
   17.9193   38.5315   -9.2071 C   0  0  0  0  0  0  0  0  0  0  0  0
   17.1649   37.2175   -9.4879 C   0  0  0  0  0  0  0  0  0  0  0  0
   18.4637   39.0696  -10.5492 C   0  0  0  0  0  0  0  0  0  0  0  0
   19.1257   38.2246   -8.3004 C   0  0  0  0  0  0  0  0  0  0  0  0
   24.9838   42.1058  -10.4397 C   0  0  0  0  0  0  0  0  0  0  0  0
   25.3047   43.0498  -11.3268 N   0  0  0  0  0  0  0  0  0  0  0  0
   26.6360   42.8243  -11.6377 C   0  0  0  0  0  0  0  0  0  0  0  0
   27.0632   41.7502  -10.9058 C   0  0  0  0  0  0  0  0  0  0  0  0
   26.0284   41.2887  -10.1363 O   0  0  0  0  0  0  0  0  0  0  0  0
   21.3291   46.3232   -6.3667 H   0  0  0  0  0  0  0  0  0  0  0  0
   20.5415   43.9613   -7.6212 H   0  0  0  0  0  0  0  0  0  0  0  0
   18.3442   46.0718   -7.7900 H   0  0  0  0  0  0  0  0  0  0  0  0
   23.0221   47.8432   -8.3814 H   0  0  0  0  0  0  0  0  0  0  0  0
   23.0739   48.0481   -6.6326 H   0  0  0  0  0  0  0  0  0  0  0  0
   21.6149   48.4634   -7.5207 H   0  0  0  0  0  0  0  0  0  0  0  0
   23.9059   45.6284   -7.7758 H   0  0  0  0  0  0  0  0  0  0  0  0
   22.8121   44.3352   -7.4801 H   0  0  0  0  0  0  0  0  0  0  0  0
   23.7463   46.2070   -5.2561 H   0  0  0  0  0  0  0  0  0  0  0  0
   24.6218   44.7756   -5.6901 H   0  0  0  0  0  0  0  0  0  0  0  0
   21.6929   44.6842   -4.8301 H   0  0  0  0  0  0  0  0  0  0  0  0
   23.0249   44.5570   -3.7133 H   0  0  0  0  0  0  0  0  0  0  0  0
   23.8679   42.5410   -4.8214 H   0  0  0  0  0  0  0  0  0  0  0  0
   22.6520   42.6722   -6.0608 H   0  0  0  0  0  0  0  0  0  0  0  0
   22.1103   42.1641   -3.1149 H   0  0  0  0  0  0  0  0  0  0  0  0
   20.8525   42.4043   -4.2958 H   0  0  0  0  0  0  0  0  0  0  0  0
   21.2554   40.0245   -3.7376 H   0  0  0  0  0  0  0  0  0  0  0  0
   22.8809   40.0986   -4.3479 H   0  0  0  0  0  0  0  0  0  0  0  0
   20.4848   40.7862   -6.1083 H   0  0  0  0  0  0  0  0  0  0  0  0
   20.9295   39.1288   -5.8414 H   0  0  0  0  0  0  0  0  0  0  0  0
   24.4602   40.5597   -8.2569 H   0  0  0  0  0  0  0  0  0  0  0  0
   22.6253   43.1797  -11.1421 H   0  0  0  0  0  0  0  0  0  0  0  0
   20.2409   41.4698   -8.0162 H   0  0  0  0  0  0  0  0  0  0  0  0
   18.9090   44.6888   -9.9714 H   0  0  0  0  0  0  0  0  0  0  0  0
   21.6248   45.6965   -9.3145 H   0  0  0  0  0  0  0  0  0  0  0  0
   20.3935   46.7797   -8.7615 H   0  0  0  0  0  0  0  0  0  0  0  0
   19.5274   44.5741   -5.7300 H   0  0  0  0  0  0  0  0  0  0  0  0
   16.8614   44.4077   -6.6169 H   0  0  0  0  0  0  0  0  0  0  0  0
   17.9628   43.1238   -7.0427 H   0  0  0  0  0  0  0  0  0  0  0  0
   17.5459   43.6015   -9.3384 H   0  0  0  0  0  0  0  0  0  0  0  0
   14.9798   44.1743  -10.5413 H   0  0  0  0  0  0  0  0  0  0  0  0
   14.1992   42.5375  -10.2260 H   0  0  0  0  0  0  0  0  0  0  0  0
   13.5591   43.2901   -7.9410 H   0  0  0  0  0  0  0  0  0  0  0  0
   14.3655   44.9135   -8.2455 H   0  0  0  0  0  0  0  0  0  0  0  0
   17.2373   41.2079   -9.8739 H   0  0  0  0  0  0  0  0  0  0  0  0
   16.4524   38.1523   -6.8904 H   0  0  0  0  0  0  0  0  0  0  0  0
   14.9781   39.8226   -5.7105 H   0  0  0  0  0  0  0  0  0  0  0  0
   16.8571   36.7097   -8.5724 H   0  0  0  0  0  0  0  0  0  0  0  0
   17.7935   36.5188  -10.0382 H   0  0  0  0  0  0  0  0  0  0  0  0
   16.2675   37.3926  -10.0813 H   0  0  0  0  0  0  0  0  0  0  0  0
   19.0764   39.9627  -10.4098 H   0  0  0  0  0  0  0  0  0  0  0  0
   17.6574   39.3174  -11.2403 H   0  0  0  0  0  0  0  0  0  0  0  0
   19.0952   38.3289  -11.0426 H   0  0  0  0  0  0  0  0  0  0  0  0
   19.6858   39.1290   -8.0712 H   0  0  0  0  0  0  0  0  0  0  0  0
   19.8155   37.5275   -8.7789 H   0  0  0  0  0  0  0  0  0  0  0  0
   18.8216   37.7778   -7.3535 H   0  0  0  0  0  0  0  0  0  0  0  0
   27.1686   43.4365  -12.3496 H   0  0  0  0  0  0  0  0  0  0  0  0
   28.0001   41.2182  -10.8304 H   0  0  0  0  0  0  0  0  0  0  0  0
   14.7878   41.9516   -6.5471 H   0  0  0  0  0  0  0  0  0  0  0  0
  1  2  1  0  0  0  0
  1 47  1  0  0  0  0
  1 48  1  0  0  0  0
  1 49  1  0  0  0  0
  2 44  1  1  0  0  0
  2 21  1  0  0  0  0
  2  3  1  0  0  0  0
  3  4  1  0  0  0  0
  3 50  1  0  0  0  0
  3 51  1  0  0  0  0
  4  5  1  0  0  0  0
  4 52  1  0  0  0  0
  4 53  1  0  0  0  0
  5  6  1  0  0  0  0
  5 54  1  0  0  0  0
  5 55  1  0  0  0  0
  6  7  1  0  0  0  0
  6 56  1  0  0  0  0
  6 57  1  0  0  0  0
  7  8  1  0  0  0  0
  7 58  1  0  0  0  0
  7 59  1  0  0  0  0
  8  9  1  0  0  0  0
  8 60  1  0  0  0  0
  8 61  1  0  0  0  0
  9 10  1  0  0  0  0
  9 62  1  0  0  0  0
  9 63  1  0  0  0  0
 10 11  1  0  0  0  0
 11 16  1  0  0  0  0
 11 12  2  0  0  0  0
 12 13  1  0  0  0  0
 12 64  1  0  0  0  0
 13 14  2  0  0  0  0
 13 39  1  0  0  0  0
 14 15  1  0  0  0  0
 14 65  1  0  0  0  0
 15 16  2  0  0  0  0
 15 17  1  0  0  0  0
 16 66  1  0  0  0  0
 17 18  2  0  0  0  0
 17 19  1  0  0  0  0
 19 20  1  0  0  0  0
 19 67  1  0  0  0  0
 20 45  1  1  0  0  0
 20 21  1  0  0  0  0
 20 22  1  0  0  0  0
 21 68  1  0  0  0  0
 21 69  1  0  0  0  0
 22 46  1  6  0  0  0
 22 23  1  0  0  0  0
 22 24  1  0  0  0  0
 23 70  1  0  0  0  0
 24 25  1  0  0  0  0
 24 71  1  0  0  0  0
 24 72  1  0  0  0  0
 25 26  1  0  0  0  0
 25 73  1  0  0  0  0
 26 28  1  0  0  0  0
 26 27  1  0  0  0  0
 26 29  1  0  0  0  0
 27 28  1  0  0  0  0
 27 74  1  0  0  0  0
 27 75  1  0  0  0  0
 28 76  1  0  0  0  0
 28 77  1  0  0  0  0
 29 34  1  0  0  0  0
 29 30  2  0  0  0  0
 30 31  1  0  0  0  0
 30 78  1  0  0  0  0
 31 32  2  0  0  0  0
 31 35  1  0  0  0  0
 32 33  1  0  0  0  0
 32 79  1  0  0  0  0
 33 34  2  0  0  0  0
 33 80  1  0  0  0  0
 34 92  1  0  0  0  0
 35 36  1  0  0  0  0
 35 37  1  0  0  0  0
 35 38  1  0  0  0  0
 36 81  1  0  0  0  0
 36 82  1  0  0  0  0
 36 83  1  0  0  0  0
 37 84  1  0  0  0  0
 37 85  1  0  0  0  0
 37 86  1  0  0  0  0
 38 87  1  0  0  0  0
 38 88  1  0  0  0  0
 38 89  1  0  0  0  0
 39 43  1  0  0  0  0
 39 40  2  0  0  0  0
 40 41  1  0  0  0  0
 41 42  2  0  0  0  0
 41 90  1  0  0  0  0
 42 43  1  0  0  0  0
 42 91  1  0  0  0  0
M  CHG  1  34   1
M  END
