BACE_122.smi:1
 OpenBabel10021819343D
Structure written by MMmdl.
 82 85  0  0  1  0  0  0  0  0999 V2000
   14.1648   43.6457   -9.2860 C   0  0  0  0  0  0  0  0  0  0  0  0
   15.2995   43.0115   -8.4611 C   0  0  0  0  0  0  0  0  0  0  0  0
   16.3352   44.0645   -8.0400 C   0  0  0  0  0  0  0  0  0  0  0  0
   15.9794   41.8297   -9.1369 C   0  0  0  0  0  0  0  0  0  0  0  0
   16.5786   40.8258   -8.3408 C   0  0  0  0  0  0  0  0  0  0  0  0
   17.2003   39.6922   -8.9257 C   0  0  0  0  0  0  0  0  0  0  0  0
   17.2144   39.6075  -10.3387 C   0  0  0  0  0  0  0  0  0  0  0  0
   16.6407   40.6149  -11.1319 C   0  0  0  0  0  0  0  0  0  0  0  0
   16.0247   41.7227  -10.5383 C   0  0  0  0  0  0  0  0  0  0  0  0
   17.8582   38.5798   -8.0689 C   0  0  0  0  0  0  0  0  0  0  0  0
   17.2829   38.5584   -6.6430 C   0  0  0  0  0  0  0  0  0  0  0  0
   17.6155   37.1822   -8.6849 C   0  0  0  0  0  0  0  0  0  0  0  0
   19.3241   38.7837   -7.9032 N   0  3  0  0  0  0  0  0  0  0  0  0
   20.0668   39.4066   -9.0188 C   0  0  0  0  0  0  0  0  0  0  0  0
   21.5847   39.4764   -8.7439 C   0  0  1  0  0  0  0  0  0  0  0  0
   22.0598   38.1502   -8.8403 O   0  0  0  0  0  0  0  0  0  0  0  0
   22.4273   40.3770   -9.7021 C   0  0  2  0  0  0  0  0  0  0  0  0
   23.6625   40.9452   -8.9566 C   0  0  0  0  0  0  0  0  0  0  0  0
   24.5460   41.8646   -9.7846 C   0  0  0  0  0  0  0  0  0  0  0  0
   24.2491   43.2416   -9.8866 C   0  0  0  0  0  0  0  0  0  0  0  0
   25.0447   44.0894  -10.6815 C   0  0  0  0  0  0  0  0  0  0  0  0
   26.1682   43.5593  -11.3540 C   0  0  0  0  0  0  0  0  0  0  0  0
   26.4897   42.1940  -11.2274 C   0  0  0  0  0  0  0  0  0  0  0  0
   25.6840   41.3499  -10.4400 C   0  0  0  0  0  0  0  0  0  0  0  0
   24.7316   45.4258  -10.7437 O   0  0  0  0  0  0  0  0  0  0  0  0
   24.4571   45.9424  -12.0426 C   0  0  0  0  0  0  0  0  0  0  0  0
   22.9350   46.0512  -12.2174 C   0  0  0  0  0  0  0  0  0  0  0  0
   22.3143   47.1429  -11.3247 C   0  0  0  0  0  0  0  0  0  0  0  0
   20.7747   47.1153  -11.2754 C   0  0  0  0  0  0  0  0  0  0  0  0
   20.2898   46.0630  -10.3906 N   0  0  0  0  0  0  0  0  0  0  0  0
   19.7498   44.9541  -11.0391 C   0  0  0  0  0  0  0  0  0  0  0  0
   18.5865   45.0450  -11.8286 C   0  0  0  0  0  0  0  0  0  0  0  0
   18.1266   43.8823  -12.4723 C   0  0  0  0  0  0  0  0  0  0  0  0
   18.8600   42.6893  -12.3322 C   0  0  0  0  0  0  0  0  0  0  0  0
   20.0158   42.6944  -11.5174 C   0  0  0  0  0  0  0  0  0  0  0  0
   20.4312   43.8073  -10.8670 N   0  0  0  0  0  0  0  0  0  0  0  0
   20.8468   41.4516  -11.3493 C   0  0  0  0  0  0  0  0  0  0  0  0
   20.7180   40.4766  -12.0908 O   0  0  0  0  0  0  0  0  0  0  0  0
   21.6427   41.4739  -10.2675 N   0  0  0  0  0  0  0  0  0  0  0  0
   21.7294   39.8253   -7.7198 H   0  0  0  0  0  0  0  0  0  0  0  0
   22.7833   39.7798  -10.5441 H   0  0  0  0  0  0  0  0  0  0  0  0
   13.4407   42.8943   -9.6055 H   0  0  0  0  0  0  0  0  0  0  0  0
   14.5417   44.1567  -10.1717 H   0  0  0  0  0  0  0  0  0  0  0  0
   13.6261   44.3817   -8.6889 H   0  0  0  0  0  0  0  0  0  0  0  0
   14.8252   42.5939   -7.5766 H   0  0  0  0  0  0  0  0  0  0  0  0
   17.0672   43.6411   -7.3517 H   0  0  0  0  0  0  0  0  0  0  0  0
   15.8603   44.9079   -7.5401 H   0  0  0  0  0  0  0  0  0  0  0  0
   16.8759   44.4500   -8.9049 H   0  0  0  0  0  0  0  0  0  0  0  0
   16.5406   40.9476   -7.2685 H   0  0  0  0  0  0  0  0  0  0  0  0
   17.6829   38.7797  -10.8452 H   0  0  0  0  0  0  0  0  0  0  0  0
   16.6813   40.5502  -12.2060 H   0  0  0  0  0  0  0  0  0  0  0  0
   15.5974   42.4821  -11.1723 H   0  0  0  0  0  0  0  0  0  0  0  0
   16.1917   38.5485   -6.6377 H   0  0  0  0  0  0  0  0  0  0  0  0
   17.5862   39.4219   -6.0647 H   0  0  0  0  0  0  0  0  0  0  0  0
   17.6602   37.7117   -6.0736 H   0  0  0  0  0  0  0  0  0  0  0  0
   16.5496   36.9968   -8.8202 H   0  0  0  0  0  0  0  0  0  0  0  0
   17.9919   36.3922   -8.0364 H   0  0  0  0  0  0  0  0  0  0  0  0
   18.1047   37.0480   -9.6494 H   0  0  0  0  0  0  0  0  0  0  0  0
   19.4406   39.3869   -7.1015 H   0  0  0  0  0  0  0  0  0  0  0  0
   19.8754   38.8777   -9.9535 H   0  0  0  0  0  0  0  0  0  0  0  0
   19.6656   40.4137   -9.1084 H   0  0  0  0  0  0  0  0  0  0  0  0
   22.9884   38.1636   -9.0530 H   0  0  0  0  0  0  0  0  0  0  0  0
   23.3378   41.5019   -8.0764 H   0  0  0  0  0  0  0  0  0  0  0  0
   24.2744   40.1285   -8.5736 H   0  0  0  0  0  0  0  0  0  0  0  0
   23.3954   43.6532   -9.3683 H   0  0  0  0  0  0  0  0  0  0  0  0
   26.7980   44.2014  -11.9521 H   0  0  0  0  0  0  0  0  0  0  0  0
   27.3560   41.7920  -11.7326 H   0  0  0  0  0  0  0  0  0  0  0  0
   25.9411   40.3031  -10.3563 H   0  0  0  0  0  0  0  0  0  0  0  0
   24.9231   46.9226  -12.1419 H   0  0  0  0  0  0  0  0  0  0  0  0
   24.8738   45.3218  -12.8366 H   0  0  0  0  0  0  0  0  0  0  0  0
   22.7018   46.2742  -13.2595 H   0  0  0  0  0  0  0  0  0  0  0  0
   22.4948   45.0757  -12.0123 H   0  0  0  0  0  0  0  0  0  0  0  0
   22.7154   47.0744  -10.3114 H   0  0  0  0  0  0  0  0  0  0  0  0
   22.6370   48.1140  -11.7048 H   0  0  0  0  0  0  0  0  0  0  0  0
   20.4109   48.0652  -10.8817 H   0  0  0  0  0  0  0  0  0  0  0  0
   20.3676   47.0233  -12.2832 H   0  0  0  0  0  0  0  0  0  0  0  0
   21.0046   45.7873   -9.7329 H   0  0  0  0  0  0  0  0  0  0  0  0
   18.0589   45.9807  -11.9332 H   0  0  0  0  0  0  0  0  0  0  0  0
   17.2393   43.9126  -13.0867 H   0  0  0  0  0  0  0  0  0  0  0  0
   18.5507   41.7890  -12.8397 H   0  0  0  0  0  0  0  0  0  0  0  0
   21.6560   42.3571   -9.7757 H   0  0  0  0  0  0  0  0  0  0  0  0
   19.7522   37.8935   -7.6907 H   0  0  0  0  0  0  0  0  0  0  0  0
  1  2  1  0  0  0  0
  1 42  1  0  0  0  0
  1 43  1  0  0  0  0
  1 44  1  0  0  0  0
  2  3  1  0  0  0  0
  2  4  1  0  0  0  0
  2 45  1  0  0  0  0
  3 46  1  0  0  0  0
  3 47  1  0  0  0  0
  3 48  1  0  0  0  0
  4  9  1  0  0  0  0
  4  5  2  0  0  0  0
  5  6  1  0  0  0  0
  5 49  1  0  0  0  0
  6  7  2  0  0  0  0
  6 10  1  0  0  0  0
  7  8  1  0  0  0  0
  7 50  1  0  0  0  0
  8  9  2  0  0  0  0
  8 51  1  0  0  0  0
  9 52  1  0  0  0  0
 10 11  1  0  0  0  0
 10 12  1  0  0  0  0
 10 13  1  0  0  0  0
 11 53  1  0  0  0  0
 11 54  1  0  0  0  0
 11 55  1  0  0  0  0
 12 56  1  0  0  0  0
 12 57  1  0  0  0  0
 12 58  1  0  0  0  0
 13 14  1  0  0  0  0
 13 59  1  0  0  0  0
 13 82  1  0  0  0  0
 14 15  1  0  0  0  0
 14 60  1  0  0  0  0
 14 61  1  0  0  0  0
 15 40  1  1  0  0  0
 15 16  1  0  0  0  0
 15 17  1  0  0  0  0
 16 62  1  0  0  0  0
 17 41  1  6  0  0  0
 17 39  1  0  0  0  0
 17 18  1  0  0  0  0
 18 19  1  0  0  0  0
 18 63  1  0  0  0  0
 18 64  1  0  0  0  0
 19 24  1  0  0  0  0
 19 20  2  0  0  0  0
 20 21  1  0  0  0  0
 20 65  1  0  0  0  0
 21 22  2  0  0  0  0
 21 25  1  0  0  0  0
 22 23  1  0  0  0  0
 22 66  1  0  0  0  0
 23 24  2  0  0  0  0
 23 67  1  0  0  0  0
 24 68  1  0  0  0  0
 25 26  1  0  0  0  0
 26 27  1  0  0  0  0
 26 69  1  0  0  0  0
 26 70  1  0  0  0  0
 27 28  1  0  0  0  0
 27 71  1  0  0  0  0
 27 72  1  0  0  0  0
 28 29  1  0  0  0  0
 28 73  1  0  0  0  0
 28 74  1  0  0  0  0
 29 30  1  0  0  0  0
 29 75  1  0  0  0  0
 29 76  1  0  0  0  0
 30 31  1  0  0  0  0
 30 77  1  0  0  0  0
 31 36  1  0  0  0  0
 31 32  2  0  0  0  0
 32 33  1  0  0  0  0
 32 78  1  0  0  0  0
 33 34  2  0  0  0  0
 33 79  1  0  0  0  0
 34 35  1  0  0  0  0
 34 80  1  0  0  0  0
 35 36  2  0  0  0  0
 35 37  1  0  0  0  0
 37 38  2  0  0  0  0
 37 39  1  0  0  0  0
 39 81  1  0  0  0  0
M  CHG  1  13   1
M  END
