BACE_75.smi:1
 OpenBabel10021819343D
Structure written by MMmdl.
 91 94  0  0  1  0  0  0  0  0999 V2000
   34.4161   44.5806  -11.0469 C   0  0  0  0  0  0  0  0  0  0  0  0
   34.5968   43.3443  -11.7176 O   0  0  0  0  0  0  0  0  0  0  0  0
   34.2041   43.3911  -13.0807 C   0  0  0  0  0  0  0  0  0  0  0  0
   32.6930   43.4132  -13.2279 C   0  0  0  0  0  0  0  0  0  0  0  0
   32.0957   43.9852  -14.3714 C   0  0  0  0  0  0  0  0  0  0  0  0
   30.6921   44.0155  -14.5000 C   0  0  0  0  0  0  0  0  0  0  0  0
   29.8896   43.4445  -13.4884 C   0  0  0  0  0  0  0  0  0  0  0  0
   30.4698   42.8989  -12.3178 C   0  0  0  0  0  0  0  0  0  0  0  0
   31.8795   42.8812  -12.2039 C   0  0  0  0  0  0  0  0  0  0  0  0
   29.6105   42.3266  -11.2185 C   0  0  0  0  0  0  0  0  0  0  0  0
   30.0516   41.4680  -10.4529 O   0  0  0  0  0  0  0  0  0  0  0  0
   28.3773   42.8601  -11.1161 N   0  0  0  0  0  0  0  0  0  0  0  0
   27.3400   42.5646  -10.1208 C   0  0  1  0  0  0  0  0  0  0  0  0
   27.0153   43.8519   -9.2903 C   0  0  0  0  0  0  0  0  0  0  0  0
   26.8428   45.2255  -10.0129 C   0  0  2  0  0  0  0  0  0  0  0  0
   27.1095   46.3711   -9.0132 C   0  0  0  0  0  0  0  0  0  0  0  0
   25.4581   45.4099  -10.6909 C   0  0  0  0  0  0  0  0  0  0  0  0
   25.3898   46.5284  -11.7509 C   0  0  0  0  0  0  0  0  0  0  0  0
   26.3012   46.2308  -12.7974 O   0  0  0  0  0  0  0  0  0  0  0  0
   26.2479   47.1218  -13.9028 C   0  0  0  0  0  0  0  0  0  0  0  0
   27.4021   46.8815  -14.8608 C   0  0  0  0  0  0  0  0  0  0  0  0
   28.5402   46.2409  -14.5401 C   0  0  0  0  0  0  0  0  0  0  0  0
   29.7115   46.0016  -15.4775 C   0  0  0  0  0  0  0  0  0  0  0  0
   30.1048   44.6017  -15.6308 N   0  0  0  0  0  0  0  0  0  0  0  0
   26.1288   41.8401  -10.7840 C   0  0  2  0  0  0  0  0  0  0  0  0
   25.6118   42.6483  -11.8258 O   0  0  0  0  0  0  0  0  0  0  0  0
   24.9555   41.5539   -9.8172 C   0  0  0  0  0  0  0  0  0  0  0  0
   23.9347   40.6846  -10.4476 N   0  3  0  0  0  0  0  0  0  0  0  0
   22.5416   40.9297  -10.0439 C   0  0  0  0  0  0  0  0  0  0  0  0
   21.8136   42.0761  -10.7043 C   0  0  0  0  0  0  0  0  0  0  0  0
   21.4598   40.6519  -11.0602 C   0  0  0  0  0  0  0  0  0  0  0  0
   22.2264   40.6428   -8.5828 C   0  0  0  0  0  0  0  0  0  0  0  0
   22.1937   41.6839   -7.6277 C   0  0  0  0  0  0  0  0  0  0  0  0
   21.9064   41.4377   -6.2605 C   0  0  0  0  0  0  0  0  0  0  0  0
   21.6481   40.0986   -5.8698 C   0  0  0  0  0  0  0  0  0  0  0  0
   21.6773   39.0536   -6.8122 C   0  0  0  0  0  0  0  0  0  0  0  0
   21.9650   39.3233   -8.1614 C   0  0  0  0  0  0  0  0  0  0  0  0
   21.8842   42.6150   -5.2567 C   0  0  0  0  0  0  0  0  0  0  0  0
   23.2932   43.2442   -5.1552 C   0  0  0  0  0  0  0  0  0  0  0  0
   20.9039   43.7448   -5.6599 C   0  0  0  0  0  0  0  0  0  0  0  0
   21.4502   42.1068   -3.8621 C   0  0  0  0  0  0  0  0  0  0  0  0
   27.7410   41.8547   -9.3949 H   0  0  0  0  0  0  0  0  0  0  0  0
   27.6167   45.3123  -10.7736 H   0  0  0  0  0  0  0  0  0  0  0  0
   26.4505   40.8900  -11.2058 H   0  0  0  0  0  0  0  0  0  0  0  0
   34.7328   44.4814  -10.0087 H   0  0  0  0  0  0  0  0  0  0  0  0
   33.3685   44.8849  -11.0487 H   0  0  0  0  0  0  0  0  0  0  0  0
   35.0121   45.3720  -11.5034 H   0  0  0  0  0  0  0  0  0  0  0  0
   34.6165   42.5329  -13.6139 H   0  0  0  0  0  0  0  0  0  0  0  0
   34.6085   44.2865  -13.5557 H   0  0  0  0  0  0  0  0  0  0  0  0
   32.7127   44.4090  -15.1510 H   0  0  0  0  0  0  0  0  0  0  0  0
   28.8171   43.4439  -13.6205 H   0  0  0  0  0  0  0  0  0  0  0  0
   32.3505   42.4640  -11.3251 H   0  0  0  0  0  0  0  0  0  0  0  0
   28.1351   43.5671  -11.7955 H   0  0  0  0  0  0  0  0  0  0  0  0
   27.8622   43.9607   -8.6109 H   0  0  0  0  0  0  0  0  0  0  0  0
   26.1708   43.6848   -8.6217 H   0  0  0  0  0  0  0  0  0  0  0  0
   26.3844   46.3691   -8.1985 H   0  0  0  0  0  0  0  0  0  0  0  0
   27.0662   47.3489   -9.4917 H   0  0  0  0  0  0  0  0  0  0  0  0
   28.1023   46.2885   -8.5694 H   0  0  0  0  0  0  0  0  0  0  0  0
   25.1527   44.4938  -11.1856 H   0  0  0  0  0  0  0  0  0  0  0  0
   24.6986   45.5887   -9.9287 H   0  0  0  0  0  0  0  0  0  0  0  0
   25.6117   47.5035  -11.3170 H   0  0  0  0  0  0  0  0  0  0  0  0
   24.3763   46.5813  -12.1516 H   0  0  0  0  0  0  0  0  0  0  0  0
   26.2853   48.1611  -13.5731 H   0  0  0  0  0  0  0  0  0  0  0  0
   25.3086   46.9773  -14.4381 H   0  0  0  0  0  0  0  0  0  0  0  0
   27.2768   47.2763  -15.8586 H   0  0  0  0  0  0  0  0  0  0  0  0
   28.6736   45.8907  -13.5286 H   0  0  0  0  0  0  0  0  0  0  0  0
   30.5656   46.5771  -15.1188 H   0  0  0  0  0  0  0  0  0  0  0  0
   29.4675   46.3943  -16.4650 H   0  0  0  0  0  0  0  0  0  0  0  0
   30.6806   44.4975  -16.4540 H   0  0  0  0  0  0  0  0  0  0  0  0
   25.1213   42.0979  -12.4169 H   0  0  0  0  0  0  0  0  0  0  0  0
   24.5031   42.4899   -9.4872 H   0  0  0  0  0  0  0  0  0  0  0  0
   25.3129   41.0411   -8.9248 H   0  0  0  0  0  0  0  0  0  0  0  0
   24.1587   39.7275  -10.2154 H   0  0  0  0  0  0  0  0  0  0  0  0
   21.1011   42.6370  -10.0994 H   0  0  0  0  0  0  0  0  0  0  0  0
   22.3591   42.6609  -11.4448 H   0  0  0  0  0  0  0  0  0  0  0  0
   21.7689   40.2845  -12.0388 H   0  0  0  0  0  0  0  0  0  0  0  0
   20.5109   40.2606  -10.6933 H   0  0  0  0  0  0  0  0  0  0  0  0
   22.3937   42.6907   -7.9628 H   0  0  0  0  0  0  0  0  0  0  0  0
   21.4221   39.8329   -4.8493 H   0  0  0  0  0  0  0  0  0  0  0  0
   21.4779   38.0397   -6.4975 H   0  0  0  0  0  0  0  0  0  0  0  0
   21.9836   38.5108   -8.8732 H   0  0  0  0  0  0  0  0  0  0  0  0
   24.0393   42.5407   -4.7858 H   0  0  0  0  0  0  0  0  0  0  0  0
   23.3029   44.0956   -4.4733 H   0  0  0  0  0  0  0  0  0  0  0  0
   23.6379   43.6041   -6.1257 H   0  0  0  0  0  0  0  0  0  0  0  0
   19.8735   43.3912   -5.7169 H   0  0  0  0  0  0  0  0  0  0  0  0
   21.1643   44.1882   -6.6221 H   0  0  0  0  0  0  0  0  0  0  0  0
   20.9128   44.5573   -4.9320 H   0  0  0  0  0  0  0  0  0  0  0  0
   20.4628   41.6445   -3.8978 H   0  0  0  0  0  0  0  0  0  0  0  0
   21.3994   42.9209   -3.1378 H   0  0  0  0  0  0  0  0  0  0  0  0
   22.1401   41.3686   -3.4530 H   0  0  0  0  0  0  0  0  0  0  0  0
   23.9995   40.7919  -11.4497 H   0  0  0  0  0  0  0  0  0  0  0  0
  1  2  1  0  0  0  0
  1 45  1  0  0  0  0
  1 46  1  0  0  0  0
  1 47  1  0  0  0  0
  2  3  1  0  0  0  0
  3  4  1  0  0  0  0
  3 48  1  0  0  0  0
  3 49  1  0  0  0  0
  4  9  1  0  0  0  0
  4  5  2  0  0  0  0
  5  6  1  0  0  0  0
  5 50  1  0  0  0  0
  6 24  1  0  0  0  0
  6  7  2  0  0  0  0
  7  8  1  0  0  0  0
  7 51  1  0  0  0  0
  8  9  2  0  0  0  0
  8 10  1  0  0  0  0
  9 52  1  0  0  0  0
 10 11  2  0  0  0  0
 10 12  1  0  0  0  0
 12 13  1  0  0  0  0
 12 53  1  0  0  0  0
 13 42  1  1  0  0  0
 13 14  1  0  0  0  0
 13 25  1  0  0  0  0
 14 15  1  0  0  0  0
 14 54  1  0  0  0  0
 14 55  1  0  0  0  0
 15 43  1  6  0  0  0
 15 16  1  0  0  0  0
 15 17  1  0  0  0  0
 16 56  1  0  0  0  0
 16 57  1  0  0  0  0
 16 58  1  0  0  0  0
 17 18  1  0  0  0  0
 17 59  1  0  0  0  0
 17 60  1  0  0  0  0
 18 19  1  0  0  0  0
 18 61  1  0  0  0  0
 18 62  1  0  0  0  0
 19 20  1  0  0  0  0
 20 21  1  0  0  0  0
 20 63  1  0  0  0  0
 20 64  1  0  0  0  0
 21 22  2  0  0  0  0
 21 65  1  0  0  0  0
 22 23  1  0  0  0  0
 22 66  1  0  0  0  0
 23 24  1  0  0  0  0
 23 67  1  0  0  0  0
 23 68  1  0  0  0  0
 24 69  1  0  0  0  0
 25 44  1  6  0  0  0
 25 26  1  0  0  0  0
 25 27  1  0  0  0  0
 26 70  1  0  0  0  0
 27 28  1  0  0  0  0
 27 71  1  0  0  0  0
 27 72  1  0  0  0  0
 28 29  1  0  0  0  0
 28 73  1  0  0  0  0
 28 91  1  0  0  0  0
 29 31  1  0  0  0  0
 29 30  1  0  0  0  0
 29 32  1  0  0  0  0
 30 31  1  0  0  0  0
 30 74  1  0  0  0  0
 30 75  1  0  0  0  0
 31 76  1  0  0  0  0
 31 77  1  0  0  0  0
 32 37  1  0  0  0  0
 32 33  2  0  0  0  0
 33 34  1  0  0  0  0
 33 78  1  0  0  0  0
 34 35  2  0  0  0  0
 34 38  1  0  0  0  0
 35 36  1  0  0  0  0
 35 79  1  0  0  0  0
 36 37  2  0  0  0  0
 36 80  1  0  0  0  0
 37 81  1  0  0  0  0
 38 39  1  0  0  0  0
 38 40  1  0  0  0  0
 38 41  1  0  0  0  0
 39 82  1  0  0  0  0
 39 83  1  0  0  0  0
 39 84  1  0  0  0  0
 40 85  1  0  0  0  0
 40 86  1  0  0  0  0
 40 87  1  0  0  0  0
 41 88  1  0  0  0  0
 41 89  1  0  0  0  0
 41 90  1  0  0  0  0
M  CHG  1  28   1
M  END
